                                   MODFLOW 6
                U.S. GEOLOGICAL SURVEY MODULAR HYDROLOGIC MODEL
                          GROUNDWATER FLOW MODEL (GWF)
                            VERSION 6.5.0 05/23/2024

   MODFLOW 6 compiled May 23 2024 18:02:47 with Intel(R) Fortran Intel(R) 64
   Compiler Classic for applications running on Intel(R) 64, Version 2021.7.0
                             Build 20220726_000000

This software has been approved for release by the U.S. Geological 
Survey (USGS). Although the software has been subjected to rigorous 
review, the USGS reserves the right to update the software as needed 
pursuant to further analysis and review. No warranty, expressed or 
implied, is made by the USGS or the U.S. Government as to the 
functionality of the software and related material nor shall the 
fact of release constitute any such warranty. Furthermore, the 
software is released on condition that neither the USGS nor the U.S. 
Government shall be held liable for any damages resulting from its 
authorized or unauthorized use. Also refer to the USGS Water 
Resources Software User Rights Notice for complete use, copyright, 
and distribution information.


As a work of the United States Government, this USGS product is 
in the public domain within the United States. You can copy, 
modify, distribute, and perform the work, even for commercial 
purposes, all without asking permission. Additionally, USGS 
waives copyright and related rights in the work worldwide 
through CC0 1.0 Universal Public Domain Dedication 
(https://creativecommons.org/publicdomain/zero/1.0/).

The following GNU Lesser General Public License (LGPL) libraries
are used in this USGS product:

    SPARSKIT version 2.0
      ilut, luson, and qsplit 
      (https://www-users.cse.umn.edu/~saad/software/SPARSKIT/)

    RCM - Reverse Cuthill McKee Ordering
      (https://people.math.sc.edu/Burkardt/f_src/rcm/rcm.html)

    BLAS - Basic Linear Algebra Subprograms Level 1
      (https://people.math.sc.edu/Burkardt/f_src/blas1_d/blas1_d.html)

    SPARSEKIT - Sparse Matrix Utility Package
      amux, dperm, dvperm, rperm, and cperm
      (https://people.sc.fsu.edu/~jburkardt/f77_src/sparsekit/sparsekit.html)

The following BSD-3 License libraries are used in this USGS product:

    Modern Fortran DAG Library
      Copyright (c) 2018, Jacob Williams
      All rights reserved.
      (https://github.com/jacobwilliams/daglib)

MODFLOW 6 compiler options: -Isrc/libmf6core.a.p -Isrc -I../src
-Isrc/libmf6_external.a.p -D_FILE_OFFSET_BITS=64 -warn general -warn
truncated_source -stand=f08 -g -traceback -O2 -fpe0 -no-heap-arrays
-traceback -diag-disable:7416 -diag-disable:7025 -diag-disable:5268 -fPIC
-module src/libmf6core.a.p
-gen-dep=src/libmf6core.a.p/Utilities_compilerversion.F90.o
-gen-depformat=make -o src/libmf6core.a.p/Utilities_compilerversion.F90.o -c

System command used to initiate simulation:
/home/laura/modflow/q4-2/mf6

MODFLOW was compiled using uniform precision.

Real Variables
  KIND: 8
  TINY (smallest non-zero value):    2.225074-308
  HUGE (largest value):    1.797693+308
  PRECISION: 15
  SIZE IN BITS: 64

Integer Variables
  KIND: 4
  HUGE (largest value): 2147483647
  SIZE IN BITS: 32

Long Integer Variables
  KIND: 8
  HUGE (largest value): 9223372036854775807
  SIZE IN BITS: 64

Logical Variables
  KIND: 4
  SIZE IN BITS: 32
 
 NAMEFILE OPTIONS:
    FLOWS WILL BE SAVED TO BUDGET FILE SPECIFIED IN OUTPUT CONTROL
 END NAMEFILE OPTIONS:

 DIS -- STRUCTURED GRID DISCRETIZATION PACKAGE, VERSION 2 : 3/27/2014 - INPUT READ FROM MEMPATH: __INPUT__/PPW/DIS                                 


 NPF -- NODE PROPERTY FLOW PACKAGE, VERSION 1, 3/30/2015 INPUT READ FROM MEMPATH: __INPUT__/PPW/NPF                                 


 IC -- Initial Conditions Package, Version 8, 3/28/2015 input read from mempath: __INPUT__/PPW/IC                                  


 Setting Discretization Options
 End Setting Discretization Options

 Setting Discretization Dimensions
    NLAY = 3
    NROW = 101
    NCOL = 101
 End Setting Discretization Dimensions

 Setting Discretization Griddata
    DELR set from input file
    DELC set from input file
    TOP set from input file
    BOTM set from input file
 End Setting Discretization Griddata

 Setting NPF Options
 End Setting NPF Options

 Setting NPF Griddata
    ICELLTYPE set from input file
    K set from input file
    K33 set from input file
    K22 not provided.  Setting K22 = K.
 End Setting NPF Griddata


 WEL   -- WEL PACKAGE, VERSION 8, 2/22/2014 INPUT READ FROM MEMPATH: __INPUT__/PPW/WEL_0                               

 PROCESSING WEL BASE OPTIONS
 END OF WEL BASE OPTIONS

 PROCESSING WEL OPTIONS
 END OF WEL OPTIONS

 PROCESSING WEL BASE DIMENSIONS
    MAXBOUND =       1
 END OF WEL BASE DIMENSIONS
    STRT set from input file

 STO -- STORAGE PACKAGE, VERSION 1, 5/19/2014 INPUT READ FROM UNIT 1006


 # File generated by Flopy version 3.7.0 on 08/06/2024 at 21:41:26.
 PROCESSING STORAGE OPTIONS
 END OF STORAGE OPTIONS
 PROCESSING GRIDDATA

                 ICONVERT = 0

         SPECIFIC STORAGE =  0.1000000E-01

           SPECIFIC YIELD =   0.000000    
 END PROCESSING GRIDDATA
    BINARY GRID INFORMATION WILL BE WRITTEN TO:
      UNIT NUMBER: 1012
      FILE NAME: ppw.dis.grb

 OPENED ppw.dis.grb
 FILE TYPE:DATA(BINARY)   UNIT 1012   STATUS:REPLACE             
 FORMAT:UNFORMATTED            ACCESS:STREAM              
 ACTION:READWRITE           

      THE LAST TIME STEP WILL BE PRINTED
      THE LAST TIME STEP WILL BE PRINTED
 # File generated by Flopy version 3.7.0 on 08/06/2024 at 21:41:26.

 PROCESSING OC OPTIONS

    BUDGET INFORMATION WILL BE WRITTEN TO:
      UNIT NUMBER: 1013
      FILE NAME: ppw.cbc

 OPENED ppw.cbc
 FILE TYPE:DATA(BINARY)   UNIT 1013   STATUS:REPLACE             
 FORMAT:UNFORMATTED            ACCESS:STREAM              
 ACTION:READWRITE           

    HEAD INFORMATION WILL BE WRITTEN TO:
      UNIT NUMBER: 1014
      FILE NAME: ppw.hds

 OPENED ppw.hds
 FILE TYPE:DATA(BINARY)   UNIT 1014   STATUS:REPLACE             
 FORMAT:UNFORMATTED            ACCESS:STREAM              
 ACTION:READWRITE           

 END OF OC OPTIONS

start timestep kper="1" kstp="1" mode="normal"


 BEGIN READING OUTPUT CONTROL FOR STRESS PERIOD 1
      ALL TIME STEPS WILL BE SAVED
      ALL TIME STEPS WILL BE SAVED
      THE LAST TIME STEP WILL BE PRINTED
      THE LAST TIME STEP WILL BE PRINTED

 END READING OUTPUT CONTROL FOR STRESS PERIOD 1


 STRESS PERIOD 1 IS TRANSIENT

 UBDSV1 SAVING           STO-SS ON UNIT   1013 AT TIME STEP      1, STRESS PERIOD      1
 UBDSV1 SAVING     FLOW-JA-FACE ON UNIT   1013 AT TIME STEP      1, STRESS PERIOD      1
 UBDSV06 SAVING              WEL IN MODEL PPW              PACKAGE PPW             CONNECTED TO MODEL PPW              PACKAGE WEL_0            ON UNIT   1013 AT TIME STEP      1, STRESS PERIOD      1

 HEAD WILL BE SAVED ON UNIT 1014 AT END OF TIME STEP    1, STRESS PERIOD    1

end timestep


start timestep kper="1" kstp="2" mode="normal"

 UBDSV1 SAVING           STO-SS ON UNIT   1013 AT TIME STEP      2, STRESS PERIOD      1
 UBDSV1 SAVING     FLOW-JA-FACE ON UNIT   1013 AT TIME STEP      2, STRESS PERIOD      1
 UBDSV06 SAVING              WEL IN MODEL PPW              PACKAGE PPW             CONNECTED TO MODEL PPW              PACKAGE WEL_0            ON UNIT   1013 AT TIME STEP      2, STRESS PERIOD      1

 HEAD WILL BE SAVED ON UNIT 1014 AT END OF TIME STEP    2, STRESS PERIOD    1

end timestep


start timestep kper="1" kstp="3" mode="normal"

 UBDSV1 SAVING           STO-SS ON UNIT   1013 AT TIME STEP      3, STRESS PERIOD      1
 UBDSV1 SAVING     FLOW-JA-FACE ON UNIT   1013 AT TIME STEP      3, STRESS PERIOD      1
 UBDSV06 SAVING              WEL IN MODEL PPW              PACKAGE PPW             CONNECTED TO MODEL PPW              PACKAGE WEL_0            ON UNIT   1013 AT TIME STEP      3, STRESS PERIOD      1

 HEAD WILL BE SAVED ON UNIT 1014 AT END OF TIME STEP    3, STRESS PERIOD    1

end timestep


start timestep kper="1" kstp="4" mode="normal"

 UBDSV1 SAVING           STO-SS ON UNIT   1013 AT TIME STEP      4, STRESS PERIOD      1
 UBDSV1 SAVING     FLOW-JA-FACE ON UNIT   1013 AT TIME STEP      4, STRESS PERIOD      1
 UBDSV06 SAVING              WEL IN MODEL PPW              PACKAGE PPW             CONNECTED TO MODEL PPW              PACKAGE WEL_0            ON UNIT   1013 AT TIME STEP      4, STRESS PERIOD      1

 HEAD WILL BE SAVED ON UNIT 1014 AT END OF TIME STEP    4, STRESS PERIOD    1

end timestep


start timestep kper="1" kstp="5" mode="normal"

 UBDSV1 SAVING           STO-SS ON UNIT   1013 AT TIME STEP      5, STRESS PERIOD      1
 UBDSV1 SAVING     FLOW-JA-FACE ON UNIT   1013 AT TIME STEP      5, STRESS PERIOD      1
 UBDSV06 SAVING              WEL IN MODEL PPW              PACKAGE PPW             CONNECTED TO MODEL PPW              PACKAGE WEL_0            ON UNIT   1013 AT TIME STEP      5, STRESS PERIOD      1

 HEAD WILL BE SAVED ON UNIT 1014 AT END OF TIME STEP    5, STRESS PERIOD    1

end timestep


start timestep kper="1" kstp="6" mode="normal"

 UBDSV1 SAVING           STO-SS ON UNIT   1013 AT TIME STEP      6, STRESS PERIOD      1
 UBDSV1 SAVING     FLOW-JA-FACE ON UNIT   1013 AT TIME STEP      6, STRESS PERIOD      1
 UBDSV06 SAVING              WEL IN MODEL PPW              PACKAGE PPW             CONNECTED TO MODEL PPW              PACKAGE WEL_0            ON UNIT   1013 AT TIME STEP      6, STRESS PERIOD      1

 HEAD WILL BE SAVED ON UNIT 1014 AT END OF TIME STEP    6, STRESS PERIOD    1

end timestep


start timestep kper="1" kstp="7" mode="normal"

 UBDSV1 SAVING           STO-SS ON UNIT   1013 AT TIME STEP      7, STRESS PERIOD      1
 UBDSV1 SAVING     FLOW-JA-FACE ON UNIT   1013 AT TIME STEP      7, STRESS PERIOD      1
 UBDSV06 SAVING              WEL IN MODEL PPW              PACKAGE PPW             CONNECTED TO MODEL PPW              PACKAGE WEL_0            ON UNIT   1013 AT TIME STEP      7, STRESS PERIOD      1

 HEAD WILL BE SAVED ON UNIT 1014 AT END OF TIME STEP    7, STRESS PERIOD    1

end timestep


start timestep kper="1" kstp="8" mode="normal"

 UBDSV1 SAVING           STO-SS ON UNIT   1013 AT TIME STEP      8, STRESS PERIOD      1
 UBDSV1 SAVING     FLOW-JA-FACE ON UNIT   1013 AT TIME STEP      8, STRESS PERIOD      1
 UBDSV06 SAVING              WEL IN MODEL PPW              PACKAGE PPW             CONNECTED TO MODEL PPW              PACKAGE WEL_0            ON UNIT   1013 AT TIME STEP      8, STRESS PERIOD      1

 HEAD WILL BE SAVED ON UNIT 1014 AT END OF TIME STEP    8, STRESS PERIOD    1

end timestep


start timestep kper="1" kstp="9" mode="normal"

 UBDSV1 SAVING           STO-SS ON UNIT   1013 AT TIME STEP      9, STRESS PERIOD      1
 UBDSV1 SAVING     FLOW-JA-FACE ON UNIT   1013 AT TIME STEP      9, STRESS PERIOD      1
 UBDSV06 SAVING              WEL IN MODEL PPW              PACKAGE PPW             CONNECTED TO MODEL PPW              PACKAGE WEL_0            ON UNIT   1013 AT TIME STEP      9, STRESS PERIOD      1

 HEAD WILL BE SAVED ON UNIT 1014 AT END OF TIME STEP    9, STRESS PERIOD    1

end timestep


start timestep kper="1" kstp="10" mode="normal"

 UBDSV1 SAVING           STO-SS ON UNIT   1013 AT TIME STEP     10, STRESS PERIOD      1
 UBDSV1 SAVING     FLOW-JA-FACE ON UNIT   1013 AT TIME STEP     10, STRESS PERIOD      1
 UBDSV06 SAVING              WEL IN MODEL PPW              PACKAGE PPW             CONNECTED TO MODEL PPW              PACKAGE WEL_0            ON UNIT   1013 AT TIME STEP     10, STRESS PERIOD      1
1
  HEAD IN LAYER   1 AT END OF TIME STEP  10 IN STRESS PERIOD    1
  ---------------------------------------------------------------------------

 ........................................................................................................................................................................................................................................................................................................................................................................................................................................................................................................................................................................................................................................................................................................................................................................................................................................................................................................................................................................................................................................
   1    150.0       150.0       150.0       150.0       150.0       150.0       150.0       150.0       150.0       150.0    
        150.0       150.0       150.0       150.0       150.0       150.0       150.0       150.0       150.0       150.0    
        150.0       150.0       150.0       150.0       150.0       150.0       150.0       150.0       150.0       150.0    
        150.0       150.0       150.0       150.0       150.0       150.0       150.0       150.0       150.0       150.0    
        150.0       150.0       150.0       150.0       150.0       150.0       150.0       150.0       150.0       150.0    
        150.0       150.0       150.0       150.0       150.0       150.0       150.0       150.0       150.0       150.0    
        150.0       150.0       150.0       150.0       150.0       150.0       150.0       150.0       150.0       150.0    
        150.0       150.0       150.0       150.0       150.0       150.0       150.0       150.0       150.0       150.0    
        150.0       150.0       150.0       150.0       150.0       150.0       150.0       150.0       150.0       150.0    
        150.0       150.0       150.0       150.0       150.0       150.0       150.0       150.0       150.0       150.0    
        150.0    
   2    150.0       150.0       150.0       150.0       150.0       150.0       150.0       150.0       150.0       150.0    
        150.0       150.0       150.0       150.0       150.0       150.0       150.0       150.0       150.0       150.0    
        150.0       150.0       150.0       150.0       150.0       150.0       150.0       150.0       150.0       150.0    
        150.0       150.0       150.0       150.0       150.0       150.0       150.0       150.0       150.0       150.0    
        150.0       150.0       150.0       150.0       150.0       150.0       150.0       150.0       150.0       150.0    
        150.0       150.0       150.0       150.0       150.0       150.0       150.0       150.0       150.0       150.0    
        150.0       150.0       150.0       150.0       150.0       150.0       150.0       150.0       150.0       150.0    
        150.0       150.0       150.0       150.0       150.0       150.0       150.0       150.0       150.0       150.0    
        150.0       150.0       150.0       150.0       150.0       150.0       150.0       150.0       150.0       150.0    
        150.0       150.0       150.0       150.0       150.0       150.0       150.0       150.0       150.0       150.0    
        150.0    
   3    150.0       150.0       150.0       150.0       150.0       150.0       150.0       150.0       150.0       150.0    
        150.0       150.0       150.0       150.0       150.0       150.0       150.0       150.0       150.0       150.0    
        150.0       150.0       150.0       150.0       150.0       150.0       150.0       150.0       150.0       150.0    
        150.0       150.0       150.0       150.0       150.0       150.0       150.0       150.0       150.0       150.0    
        150.0       150.0       150.0       150.0       150.0       150.0       150.0       150.0       150.0       150.0    
        150.0       150.0       150.0       150.0       150.0       150.0       150.0       150.0       150.0       150.0    
        150.0       150.0       150.0       150.0       150.0       150.0       150.0       150.0       150.0       150.0    
        150.0       150.0       150.0       150.0       150.0       150.0       150.0       150.0       150.0       150.0    
        150.0       150.0       150.0       150.0       150.0       150.0       150.0       150.0       150.0       150.0    
        150.0       150.0       150.0       150.0       150.0       150.0       150.0       150.0       150.0       150.0    
        150.0    
   4    150.0       150.0       150.0       150.0       150.0       150.0       150.0       150.0       150.0       150.0    
        150.0       150.0       150.0       150.0       150.0       150.0       150.0       150.0       150.0       150.0    
        150.0       150.0       150.0       150.0       150.0       150.0       150.0       150.0       150.0       150.0    
        150.0       150.0       150.0       150.0       150.0       150.0       150.0       150.0       150.0       150.0    
        150.0       150.0       150.0       150.0       150.0       150.0       150.0       150.0       150.0       150.0    
        150.0       150.0       150.0       150.0       150.0       150.0       150.0       150.0       150.0       150.0    
        150.0       150.0       150.0       150.0       150.0       150.0       150.0       150.0       150.0       150.0    
        150.0       150.0       150.0       150.0       150.0       150.0       150.0       150.0       150.0       150.0    
        150.0       150.0       150.0       150.0       150.0       150.0       150.0       150.0       150.0       150.0    
        150.0       150.0       150.0       150.0       150.0       150.0       150.0       150.0       150.0       150.0    
        150.0    
   5    150.0       150.0       150.0       150.0       150.0       150.0       150.0       150.0       150.0       150.0    
        150.0       150.0       150.0       150.0       150.0       150.0       150.0       150.0       150.0       150.0    
        150.0       150.0       150.0       150.0       150.0       150.0       150.0       150.0       150.0       150.0    
        150.0       150.0       150.0       150.0       150.0       150.0       150.0       150.0       150.0       150.0    
        150.0       150.0       150.0       150.0       150.0       150.0       150.0       150.0       150.0       150.0    
        150.0       150.0       150.0       150.0       150.0       150.0       150.0       150.0       150.0       150.0    
        150.0       150.0       150.0       150.0       150.0       150.0       150.0       150.0       150.0       150.0    
        150.0       150.0       150.0       150.0       150.0       150.0       150.0       150.0       150.0       150.0    
        150.0       150.0       150.0       150.0       150.0       150.0       150.0       150.0       150.0       150.0    
        150.0       150.0       150.0       150.0       150.0       150.0       150.0       150.0       150.0       150.0    
        150.0    
   6    150.0       150.0       150.0       150.0       150.0       150.0       150.0       150.0       150.0       150.0    
        150.0       150.0       150.0       150.0       150.0       150.0       150.0       150.0       150.0       150.0    
        150.0       150.0       150.0       150.0       150.0       150.0       150.0       150.0       150.0       150.0    
        150.0       150.0       150.0       150.0       150.0       150.0       150.0       150.0       150.0       150.0    
        150.0       150.0       150.0       150.0       150.0       150.0       150.0       150.0       150.0       150.0    
        150.0       150.0       150.0       150.0       150.0       150.0       150.0       150.0       150.0       150.0    
        150.0       150.0       150.0       150.0       150.0       150.0       150.0       150.0       150.0       150.0    
        150.0       150.0       150.0       150.0       150.0       150.0       150.0       150.0       150.0       150.0    
        150.0       150.0       150.0       150.0       150.0       150.0       150.0       150.0       150.0       150.0    
        150.0       150.0       150.0       150.0       150.0       150.0       150.0       150.0       150.0       150.0    
        150.0    
   7    150.0       150.0       150.0       150.0       150.0       150.0       150.0       150.0       150.0       150.0    
        150.0       150.0       150.0       150.0       150.0       150.0       150.0       150.0       150.0       150.0    
        150.0       150.0       150.0       150.0       150.0       150.0       150.0       150.0       150.0       150.0    
        150.0       150.0       150.0       150.0       150.0       150.0       150.0       150.0       150.0       150.0    
        150.0       150.0       150.0       150.0       150.0       150.0       150.0       150.0       150.0       150.0    
        150.0       150.0       150.0       150.0       150.0       150.0       150.0       150.0       150.0       150.0    
        150.0       150.0       150.0       150.0       150.0       150.0       150.0       150.0       150.0       150.0    
        150.0       150.0       150.0       150.0       150.0       150.0       150.0       150.0       150.0       150.0    
        150.0       150.0       150.0       150.0       150.0       150.0       150.0       150.0       150.0       150.0    
        150.0       150.0       150.0       150.0       150.0       150.0       150.0       150.0       150.0       150.0    
        150.0    
   8    150.0       150.0       150.0       150.0       150.0       150.0       150.0       150.0       150.0       150.0    
        150.0       150.0       150.0       150.0       150.0       150.0       150.0       150.0       150.0       150.0    
        150.0       150.0       150.0       150.0       150.0       150.0       150.0       150.0       150.0       150.0    
        150.0       150.0       150.0       150.0       150.0       150.0       150.0       150.0       150.0       150.0    
        150.0       150.0       150.0       150.0       150.0       150.0       150.0       150.0       150.0       150.0    
        150.0       150.0       150.0       150.0       150.0       150.0       150.0       150.0       150.0       150.0    
        150.0       150.0       150.0       150.0       150.0       150.0       150.0       150.0       150.0       150.0    
        150.0       150.0       150.0       150.0       150.0       150.0       150.0       150.0       150.0       150.0    
        150.0       150.0       150.0       150.0       150.0       150.0       150.0       150.0       150.0       150.0    
        150.0       150.0       150.0       150.0       150.0       150.0       150.0       150.0       150.0       150.0    
        150.0    
   9    150.0       150.0       150.0       150.0       150.0       150.0       150.0       150.0       150.0       150.0    
        150.0       150.0       150.0       150.0       150.0       150.0       150.0       150.0       150.0       150.0    
        150.0       150.0       150.0       150.0       150.0       150.0       150.0       150.0       150.0       150.0    
        150.0       150.0       150.0       150.0       150.0       150.0       150.0       150.0       150.0       150.0    
        150.0       150.0       150.0       150.0       150.0       150.0       150.0       150.0       150.0       150.0    
        150.0       150.0       150.0       150.0       150.0       150.0       150.0       150.0       150.0       150.0    
        150.0       150.0       150.0       150.0       150.0       150.0       150.0       150.0       150.0       150.0    
        150.0       150.0       150.0       150.0       150.0       150.0       150.0       150.0       150.0       150.0    
        150.0       150.0       150.0       150.0       150.0       150.0       150.0       150.0       150.0       150.0    
        150.0       150.0       150.0       150.0       150.0       150.0       150.0       150.0       150.0       150.0    
        150.0    
  10    150.0       150.0       150.0       150.0       150.0       150.0       150.0       150.0       150.0       150.0    
        150.0       150.0       150.0       150.0       150.0       150.0       150.0       150.0       150.0       150.0    
        150.0       150.0       150.0       150.0       150.0       150.0       150.0       150.0       150.0       150.0    
        150.0       150.0       150.0       150.0       150.0       150.0       150.0       150.0       150.0       150.0    
        150.0       150.0       150.0       150.0       150.0       150.0       150.0       150.0       150.0       150.0    
        150.0       150.0       150.0       150.0       150.0       150.0       150.0       150.0       150.0       150.0    
        150.0       150.0       150.0       150.0       150.0       150.0       150.0       150.0       150.0       150.0    
        150.0       150.0       150.0       150.0       150.0       150.0       150.0       150.0       150.0       150.0    
        150.0       150.0       150.0       150.0       150.0       150.0       150.0       150.0       150.0       150.0    
        150.0       150.0       150.0       150.0       150.0       150.0       150.0       150.0       150.0       150.0    
        150.0    
  11    150.0       150.0       150.0       150.0       150.0       150.0       150.0       150.0       150.0       150.0    
        150.0       150.0       150.0       150.0       150.0       150.0       150.0       150.0       150.0       150.0    
        150.0       150.0       150.0       150.0       150.0       150.0       150.0       150.0       150.0       150.0    
        150.0       150.0       150.0       150.0       150.0       150.0       150.0       150.0       150.0       150.0    
        150.0       150.0       150.0       150.0       150.0       150.0       150.0       150.0       150.0       150.0    
        150.0       150.0       150.0       150.0       150.0       150.0       150.0       150.0       150.0       150.0    
        150.0       150.0       150.0       150.0       150.0       150.0       150.0       150.0       150.0       150.0    
        150.0       150.0       150.0       150.0       150.0       150.0       150.0       150.0       150.0       150.0    
        150.0       150.0       150.0       150.0       150.0       150.0       150.0       150.0       150.0       150.0    
        150.0       150.0       150.0       150.0       150.0       150.0       150.0       150.0       150.0       150.0    
        150.0    
  12    150.0       150.0       150.0       150.0       150.0       150.0       150.0       150.0       150.0       150.0    
        150.0       150.0       150.0       150.0       150.0       150.0       150.0       150.0       150.0       150.0    
        150.0       150.0       150.0       150.0       150.0       150.0       150.0       150.0       150.0       150.0    
        150.0       150.0       150.0       150.0       150.0       150.0       150.0       150.0       150.0       150.0    
        150.0       150.0       150.0       150.0       150.0       150.0       150.0       150.0       150.0       150.0    
        150.0       150.0       150.0       150.0       150.0       150.0       150.0       150.0       150.0       150.0    
        150.0       150.0       150.0       150.0       150.0       150.0       150.0       150.0       150.0       150.0    
        150.0       150.0       150.0       150.0       150.0       150.0       150.0       150.0       150.0       150.0    
        150.0       150.0       150.0       150.0       150.0       150.0       150.0       150.0       150.0       150.0    
        150.0       150.0       150.0       150.0       150.0       150.0       150.0       150.0       150.0       150.0    
        150.0    
  13    150.0       150.0       150.0       150.0       150.0       150.0       150.0       150.0       150.0       150.0    
        150.0       150.0       150.0       150.0       150.0       150.0       150.0       150.0       150.0       150.0    
        150.0       150.0       150.0       150.0       150.0       150.0       150.0       150.0       150.0       150.0    
        150.0       150.0       150.0       150.0       150.0       150.0       150.0       150.0       150.0       150.0    
        150.0       150.0       150.0       150.0       150.0       150.0       150.0       150.0       150.0       150.0    
        150.0       150.0       150.0       150.0       150.0       150.0       150.0       150.0       150.0       150.0    
        150.0       150.0       150.0       150.0       150.0       150.0       150.0       150.0       150.0       150.0    
        150.0       150.0       150.0       150.0       150.0       150.0       150.0       150.0       150.0       150.0    
        150.0       150.0       150.0       150.0       150.0       150.0       150.0       150.0       150.0       150.0    
        150.0       150.0       150.0       150.0       150.0       150.0       150.0       150.0       150.0       150.0    
        150.0    
  14    150.0       150.0       150.0       150.0       150.0       150.0       150.0       150.0       150.0       150.0    
        150.0       150.0       150.0       150.0       150.0       150.0       150.0       150.0       150.0       150.0    
        150.0       150.0       150.0       150.0       150.0       150.0       150.0       150.0       150.0       150.0    
        150.0       150.0       150.0       150.0       150.0       150.0       150.0       150.0       150.0       150.0    
        150.0       150.0       150.0       150.0       150.0       150.0       150.0       150.0       150.0       150.0    
        150.0       150.0       150.0       150.0       150.0       150.0       150.0       150.0       150.0       150.0    
        150.0       150.0       150.0       150.0       150.0       150.0       150.0       150.0       150.0       150.0    
        150.0       150.0       150.0       150.0       150.0       150.0       150.0       150.0       150.0       150.0    
        150.0       150.0       150.0       150.0       150.0       150.0       150.0       150.0       150.0       150.0    
        150.0       150.0       150.0       150.0       150.0       150.0       150.0       150.0       150.0       150.0    
        150.0    
  15    150.0       150.0       150.0       150.0       150.0       150.0       150.0       150.0       150.0       150.0    
        150.0       150.0       150.0       150.0       150.0       150.0       150.0       150.0       150.0       150.0    
        150.0       150.0       150.0       150.0       150.0       150.0       150.0       150.0       150.0       150.0    
        150.0       150.0       150.0       150.0       150.0       150.0       150.0       150.0       150.0       150.0    
        150.0       150.0       150.0       150.0       150.0       150.0       150.0       150.0       150.0       150.0    
        150.0       150.0       150.0       150.0       150.0       150.0       150.0       150.0       150.0       150.0    
        150.0       150.0       150.0       150.0       150.0       150.0       150.0       150.0       150.0       150.0    
        150.0       150.0       150.0       150.0       150.0       150.0       150.0       150.0       150.0       150.0    
        150.0       150.0       150.0       150.0       150.0       150.0       150.0       150.0       150.0       150.0    
        150.0       150.0       150.0       150.0       150.0       150.0       150.0       150.0       150.0       150.0    
        150.0    
  16    150.0       150.0       150.0       150.0       150.0       150.0       150.0       150.0       150.0       150.0    
        150.0       150.0       150.0       150.0       150.0       150.0       150.0       150.0       150.0       150.0    
        150.0       150.0       150.0       150.0       150.0       150.0       150.0       150.0       150.0       150.0    
        150.0       150.0       150.0       150.0       150.0       150.0       150.0       150.0       150.0       150.0    
        150.0       150.0       150.0       150.0       150.0       150.0       150.0       150.0       150.0       150.0    
        150.0       150.0       150.0       150.0       150.0       150.0       150.0       150.0       150.0       150.0    
        150.0       150.0       150.0       150.0       150.0       150.0       150.0       150.0       150.0       150.0    
        150.0       150.0       150.0       150.0       150.0       150.0       150.0       150.0       150.0       150.0    
        150.0       150.0       150.0       150.0       150.0       150.0       150.0       150.0       150.0       150.0    
        150.0       150.0       150.0       150.0       150.0       150.0       150.0       150.0       150.0       150.0    
        150.0    
  17    150.0       150.0       150.0       150.0       150.0       150.0       150.0       150.0       150.0       150.0    
        150.0       150.0       150.0       150.0       150.0       150.0       150.0       150.0       150.0       150.0    
        150.0       150.0       150.0       150.0       150.0       150.0       150.0       150.0       150.0       150.0    
        150.0       150.0       150.0       150.0       150.0       150.0       150.0       150.0       150.0       150.0    
        150.0       150.0       150.0       150.0       150.0       150.0       150.0       150.0       150.0       150.0    
        150.0       150.0       150.0       150.0       150.0       150.0       150.0       150.0       150.0       150.0    
        150.0       150.0       150.0       150.0       150.0       150.0       150.0       150.0       150.0       150.0    
        150.0       150.0       150.0       150.0       150.0       150.0       150.0       150.0       150.0       150.0    
        150.0       150.0       150.0       150.0       150.0       150.0       150.0       150.0       150.0       150.0    
        150.0       150.0       150.0       150.0       150.0       150.0       150.0       150.0       150.0       150.0    
        150.0    
  18    150.0       150.0       150.0       150.0       150.0       150.0       150.0       150.0       150.0       150.0    
        150.0       150.0       150.0       150.0       150.0       150.0       150.0       150.0       150.0       150.0    
        150.0       150.0       150.0       150.0       150.0       150.0       150.0       150.0       150.0       150.0    
        150.0       150.0       150.0       150.0       150.0       150.0       150.0       150.0       150.0       150.0    
        150.0       150.0       150.0       150.0       150.0       150.0       150.0       150.0       150.0       150.0    
        150.0       150.0       150.0       150.0       150.0       150.0       150.0       150.0       150.0       150.0    
        150.0       150.0       150.0       150.0       150.0       150.0       150.0       150.0       150.0       150.0    
        150.0       150.0       150.0       150.0       150.0       150.0       150.0       150.0       150.0       150.0    
        150.0       150.0       150.0       150.0       150.0       150.0       150.0       150.0       150.0       150.0    
        150.0       150.0       150.0       150.0       150.0       150.0       150.0       150.0       150.0       150.0    
        150.0    
  19    150.0       150.0       150.0       150.0       150.0       150.0       150.0       150.0       150.0       150.0    
        150.0       150.0       150.0       150.0       150.0       150.0       150.0       150.0       150.0       150.0    
        150.0       150.0       150.0       150.0       150.0       150.0       150.0       150.0       150.0       150.0    
        150.0       150.0       150.0       150.0       150.0       150.0       150.0       150.0       150.0       150.0    
        150.0       150.0       150.0       150.0       150.0       150.0       150.0       150.0       150.0       150.0    
        150.0       150.0       150.0       150.0       150.0       150.0       150.0       150.0       150.0       150.0    
        150.0       150.0       150.0       150.0       150.0       150.0       150.0       150.0       150.0       150.0    
        150.0       150.0       150.0       150.0       150.0       150.0       150.0       150.0       150.0       150.0    
        150.0       150.0       150.0       150.0       150.0       150.0       150.0       150.0       150.0       150.0    
        150.0       150.0       150.0       150.0       150.0       150.0       150.0       150.0       150.0       150.0    
        150.0    
  20    150.0       150.0       150.0       150.0       150.0       150.0       150.0       150.0       150.0       150.0    
        150.0       150.0       150.0       150.0       150.0       150.0       150.0       150.0       150.0       150.0    
        150.0       150.0       150.0       150.0       150.0       150.0       150.0       150.0       150.0       150.0    
        150.0       150.0       150.0       150.0       150.0       150.0       150.0       150.0       150.0       150.0    
        150.0       150.0       150.0       150.0       150.0       150.0       150.0       150.0       150.0       150.0    
        150.0       150.0       150.0       150.0       150.0       150.0       150.0       150.0       150.0       150.0    
        150.0       150.0       150.0       150.0       150.0       150.0       150.0       150.0       150.0       150.0    
        150.0       150.0       150.0       150.0       150.0       150.0       150.0       150.0       150.0       150.0    
        150.0       150.0       150.0       150.0       150.0       150.0       150.0       150.0       150.0       150.0    
        150.0       150.0       150.0       150.0       150.0       150.0       150.0       150.0       150.0       150.0    
        150.0    
  21    150.0       150.0       150.0       150.0       150.0       150.0       150.0       150.0       150.0       150.0    
        150.0       150.0       150.0       150.0       150.0       150.0       150.0       150.0       150.0       150.0    
        150.0       150.0       150.0       150.0       150.0       150.0       150.0       150.0       150.0       150.0    
        150.0       150.0       150.0       150.0       150.0       150.0       150.0       150.0       150.0       150.0    
        150.0       150.0       150.0       150.0       150.0       150.0       150.0       150.0       150.0       150.0    
        150.0       150.0       150.0       150.0       150.0       150.0       150.0       150.0       150.0       150.0    
        150.0       150.0       150.0       150.0       150.0       150.0       150.0       150.0       150.0       150.0    
        150.0       150.0       150.0       150.0       150.0       150.0       150.0       150.0       150.0       150.0    
        150.0       150.0       150.0       150.0       150.0       150.0       150.0       150.0       150.0       150.0    
        150.0       150.0       150.0       150.0       150.0       150.0       150.0       150.0       150.0       150.0    
        150.0    
  22    150.0       150.0       150.0       150.0       150.0       150.0       150.0       150.0       150.0       150.0    
        150.0       150.0       150.0       150.0       150.0       150.0       150.0       150.0       150.0       150.0    
        150.0       150.0       150.0       150.0       150.0       150.0       150.0       150.0       150.0       150.0    
        150.0       150.0       150.0       150.0       150.0       150.0       150.0       150.0       150.0       150.0    
        150.0       150.0       150.0       150.0       150.0       150.0       150.0       150.0       150.0       150.0    
        150.0       150.0       150.0       150.0       150.0       150.0       150.0       150.0       150.0       150.0    
        150.0       150.0       150.0       150.0       150.0       150.0       150.0       150.0       150.0       150.0    
        150.0       150.0       150.0       150.0       150.0       150.0       150.0       150.0       150.0       150.0    
        150.0       150.0       150.0       150.0       150.0       150.0       150.0       150.0       150.0       150.0    
        150.0       150.0       150.0       150.0       150.0       150.0       150.0       150.0       150.0       150.0    
        150.0    
  23    150.0       150.0       150.0       150.0       150.0       150.0       150.0       150.0       150.0       150.0    
        150.0       150.0       150.0       150.0       150.0       150.0       150.0       150.0       150.0       150.0    
        150.0       150.0       150.0       150.0       150.0       150.0       150.0       150.0       150.0       150.0    
        150.0       150.0       150.0       150.0       150.0       150.0       150.0       150.0       150.0       150.0    
        150.0       150.0       150.0       150.0       150.0       150.0       150.0       150.0       150.0       150.0    
        150.0       150.0       150.0       150.0       150.0       150.0       150.0       150.0       150.0       150.0    
        150.0       150.0       150.0       150.0       150.0       150.0       150.0       150.0       150.0       150.0    
        150.0       150.0       150.0       150.0       150.0       150.0       150.0       150.0       150.0       150.0    
        150.0       150.0       150.0       150.0       150.0       150.0       150.0       150.0       150.0       150.0    
        150.0       150.0       150.0       150.0       150.0       150.0       150.0       150.0       150.0       150.0    
        150.0    
  24    150.0       150.0       150.0       150.0       150.0       150.0       150.0       150.0       150.0       150.0    
        150.0       150.0       150.0       150.0       150.0       150.0       150.0       150.0       150.0       150.0    
        150.0       150.0       150.0       150.0       150.0       150.0       150.0       150.0       150.0       150.0    
        150.0       150.0       150.0       150.0       150.0       150.0       150.0       150.0       150.0       150.0    
        150.0       150.0       150.0       150.0       150.0       150.0       150.0       150.0       150.0       150.0    
        150.0       150.0       150.0       150.0       150.0       150.0       150.0       150.0       150.0       150.0    
        150.0       150.0       150.0       150.0       150.0       150.0       150.0       150.0       150.0       150.0    
        150.0       150.0       150.0       150.0       150.0       150.0       150.0       150.0       150.0       150.0    
        150.0       150.0       150.0       150.0       150.0       150.0       150.0       150.0       150.0       150.0    
        150.0       150.0       150.0       150.0       150.0       150.0       150.0       150.0       150.0       150.0    
        150.0    
  25    150.0       150.0       150.0       150.0       150.0       150.0       150.0       150.0       150.0       150.0    
        150.0       150.0       150.0       150.0       150.0       150.0       150.0       150.0       150.0       150.0    
        150.0       150.0       150.0       150.0       150.0       150.0       150.0       150.0       150.0       150.0    
        150.0       150.0       150.0       150.0       150.0       150.0       150.0       150.0       150.0       150.0    
        150.0       150.0       150.0       150.0       150.0       150.0       150.0       150.0       150.0       150.0    
        150.0       150.0       150.0       150.0       150.0       150.0       150.0       150.0       150.0       150.0    
        150.0       150.0       150.0       150.0       150.0       150.0       150.0       150.0       150.0       150.0    
        150.0       150.0       150.0       150.0       150.0       150.0       150.0       150.0       150.0       150.0    
        150.0       150.0       150.0       150.0       150.0       150.0       150.0       150.0       150.0       150.0    
        150.0       150.0       150.0       150.0       150.0       150.0       150.0       150.0       150.0       150.0    
        150.0    
  26    150.0       150.0       150.0       150.0       150.0       150.0       150.0       150.0       150.0       150.0    
        150.0       150.0       150.0       150.0       150.0       150.0       150.0       150.0       150.0       150.0    
        150.0       150.0       150.0       150.0       150.0       150.0       150.0       150.0       150.0       150.0    
        150.0       150.0       150.0       150.0       150.0       150.0       150.0       150.0       150.0       150.0    
        150.0       150.0       150.0       150.0       150.0       150.0       150.0       150.0       150.0       150.0    
        150.0       150.0       150.0       150.0       150.0       150.0       150.0       150.0       150.0       150.0    
        150.0       150.0       150.0       150.0       150.0       150.0       150.0       150.0       150.0       150.0    
        150.0       150.0       150.0       150.0       150.0       150.0       150.0       150.0       150.0       150.0    
        150.0       150.0       150.0       150.0       150.0       150.0       150.0       150.0       150.0       150.0    
        150.0       150.0       150.0       150.0       150.0       150.0       150.0       150.0       150.0       150.0    
        150.0    
  27    150.0       150.0       150.0       150.0       150.0       150.0       150.0       150.0       150.0       150.0    
        150.0       150.0       150.0       150.0       150.0       150.0       150.0       150.0       150.0       150.0    
        150.0       150.0       150.0       150.0       150.0       150.0       150.0       150.0       150.0       150.0    
        150.0       150.0       150.0       150.0       150.0       150.0       150.0       150.0       150.0       150.0    
        150.0       150.0       150.0       150.0       150.0       150.0       150.0       150.0       150.0       150.0    
        150.0       150.0       150.0       150.0       150.0       150.0       150.0       150.0       150.0       150.0    
        150.0       150.0       150.0       150.0       150.0       150.0       150.0       150.0       150.0       150.0    
        150.0       150.0       150.0       150.0       150.0       150.0       150.0       150.0       150.0       150.0    
        150.0       150.0       150.0       150.0       150.0       150.0       150.0       150.0       150.0       150.0    
        150.0       150.0       150.0       150.0       150.0       150.0       150.0       150.0       150.0       150.0    
        150.0    
  28    150.0       150.0       150.0       150.0       150.0       150.0       150.0       150.0       150.0       150.0    
        150.0       150.0       150.0       150.0       150.0       150.0       150.0       150.0       150.0       150.0    
        150.0       150.0       150.0       150.0       150.0       150.0       150.0       150.0       150.0       150.0    
        150.0       150.0       150.0       150.0       150.0       150.0       150.0       150.0       150.0       150.0    
        150.0       150.0       150.0       150.0       150.0       150.0       150.0       150.0       150.0       150.0    
        150.0       150.0       150.0       150.0       150.0       150.0       150.0       150.0       150.0       150.0    
        150.0       150.0       150.0       150.0       150.0       150.0       150.0       150.0       150.0       150.0    
        150.0       150.0       150.0       150.0       150.0       150.0       150.0       150.0       150.0       150.0    
        150.0       150.0       150.0       150.0       150.0       150.0       150.0       150.0       150.0       150.0    
        150.0       150.0       150.0       150.0       150.0       150.0       150.0       150.0       150.0       150.0    
        150.0    
  29    150.0       150.0       150.0       150.0       150.0       150.0       150.0       150.0       150.0       150.0    
        150.0       150.0       150.0       150.0       150.0       150.0       150.0       150.0       150.0       150.0    
        150.0       150.0       150.0       150.0       150.0       150.0       150.0       150.0       150.0       150.0    
        150.0       150.0       150.0       150.0       150.0       150.0       150.0       150.0       150.0       150.0    
        150.0       150.0       150.0       150.0       150.0       150.0       150.0       150.0       150.0       150.0    
        150.0       150.0       150.0       150.0       150.0       150.0       150.0       150.0       150.0       150.0    
        150.0       150.0       150.0       150.0       150.0       150.0       150.0       150.0       150.0       150.0    
        150.0       150.0       150.0       150.0       150.0       150.0       150.0       150.0       150.0       150.0    
        150.0       150.0       150.0       150.0       150.0       150.0       150.0       150.0       150.0       150.0    
        150.0       150.0       150.0       150.0       150.0       150.0       150.0       150.0       150.0       150.0    
        150.0    
  30    150.0       150.0       150.0       150.0       150.0       150.0       150.0       150.0       150.0       150.0    
        150.0       150.0       150.0       150.0       150.0       150.0       150.0       150.0       150.0       150.0    
        150.0       150.0       150.0       150.0       150.0       150.0       150.0       150.0       150.0       150.0    
        150.0       150.0       150.0       150.0       150.0       150.0       150.0       150.0       150.0       150.0    
        150.0       150.0       150.0       150.0       150.0       150.0       150.0       150.0       150.0       150.0    
        150.0       150.0       150.0       150.0       150.0       150.0       150.0       150.0       150.0       150.0    
        150.0       150.0       150.0       150.0       150.0       150.0       150.0       150.0       150.0       150.0    
        150.0       150.0       150.0       150.0       150.0       150.0       150.0       150.0       150.0       150.0    
        150.0       150.0       150.0       150.0       150.0       150.0       150.0       150.0       150.0       150.0    
        150.0       150.0       150.0       150.0       150.0       150.0       150.0       150.0       150.0       150.0    
        150.0    
  31    150.0       150.0       150.0       150.0       150.0       150.0       150.0       150.0       150.0       150.0    
        150.0       150.0       150.0       150.0       150.0       150.0       150.0       150.0       150.0       150.0    
        150.0       150.0       150.0       150.0       150.0       150.0       150.0       150.0       150.0       150.0    
        150.0       150.0       150.0       150.0       150.0       150.0       150.0       150.0       150.0       150.0    
        150.0       150.0       150.0       150.0       150.0       150.0       150.0       150.0       150.0       150.0    
        150.0       150.0       150.0       150.0       150.0       150.0       150.0       150.0       150.0       150.0    
        150.0       150.0       150.0       150.0       150.0       150.0       150.0       150.0       150.0       150.0    
        150.0       150.0       150.0       150.0       150.0       150.0       150.0       150.0       150.0       150.0    
        150.0       150.0       150.0       150.0       150.0       150.0       150.0       150.0       150.0       150.0    
        150.0       150.0       150.0       150.0       150.0       150.0       150.0       150.0       150.0       150.0    
        150.0    
  32    150.0       150.0       150.0       150.0       150.0       150.0       150.0       150.0       150.0       150.0    
        150.0       150.0       150.0       150.0       150.0       150.0       150.0       150.0       150.0       150.0    
        150.0       150.0       150.0       150.0       150.0       150.0       150.0       150.0       150.0       150.0    
        150.0       150.0       150.0       150.0       150.0       150.0       150.0       150.0       150.0       150.0    
        150.0       150.0       150.0       150.0       150.0       150.0       150.0       150.0       150.0       150.0    
        150.0       150.0       150.0       150.0       150.0       150.0       150.0       150.0       150.0       150.0    
        150.0       150.0       150.0       150.0       150.0       150.0       150.0       150.0       150.0       150.0    
        150.0       150.0       150.0       150.0       150.0       150.0       150.0       150.0       150.0       150.0    
        150.0       150.0       150.0       150.0       150.0       150.0       150.0       150.0       150.0       150.0    
        150.0       150.0       150.0       150.0       150.0       150.0       150.0       150.0       150.0       150.0    
        150.0    
  33    150.0       150.0       150.0       150.0       150.0       150.0       150.0       150.0       150.0       150.0    
        150.0       150.0       150.0       150.0       150.0       150.0       150.0       150.0       150.0       150.0    
        150.0       150.0       150.0       150.0       150.0       150.0       150.0       150.0       150.0       150.0    
        150.0       150.0       150.0       150.0       150.0       150.0       150.0       150.0       150.0       150.0    
        150.0       150.0       150.0       150.0       150.0       150.0       150.0       150.0       150.0       150.0    
        150.0       150.0       150.0       150.0       150.0       150.0       150.0       150.0       150.0       150.0    
        150.0       150.0       150.0       150.0       150.0       150.0       150.0       150.0       150.0       150.0    
        150.0       150.0       150.0       150.0       150.0       150.0       150.0       150.0       150.0       150.0    
        150.0       150.0       150.0       150.0       150.0       150.0       150.0       150.0       150.0       150.0    
        150.0       150.0       150.0       150.0       150.0       150.0       150.0       150.0       150.0       150.0    
        150.0    
  34    150.0       150.0       150.0       150.0       150.0       150.0       150.0       150.0       150.0       150.0    
        150.0       150.0       150.0       150.0       150.0       150.0       150.0       150.0       150.0       150.0    
        150.0       150.0       150.0       150.0       150.0       150.0       150.0       150.0       150.0       150.0    
        150.0       150.0       150.0       150.0       150.0       150.0       150.0       150.0       150.0       150.0    
        150.0       150.0       150.0       150.0       150.0       150.0       150.0       150.0       150.0       150.0    
        150.0       150.0       150.0       150.0       150.0       150.0       150.0       150.0       150.0       150.0    
        150.0       150.0       150.0       150.0       150.0       150.0       150.0       150.0       150.0       150.0    
        150.0       150.0       150.0       150.0       150.0       150.0       150.0       150.0       150.0       150.0    
        150.0       150.0       150.0       150.0       150.0       150.0       150.0       150.0       150.0       150.0    
        150.0       150.0       150.0       150.0       150.0       150.0       150.0       150.0       150.0       150.0    
        150.0    
  35    150.0       150.0       150.0       150.0       150.0       150.0       150.0       150.0       150.0       150.0    
        150.0       150.0       150.0       150.0       150.0       150.0       150.0       150.0       150.0       150.0    
        150.0       150.0       150.0       150.0       150.0       150.0       150.0       150.0       150.0       150.0    
        150.0       150.0       150.0       150.0       150.0       150.0       150.0       150.0       150.0       150.0    
        150.0       150.0       150.0       150.0       150.0       150.0       150.0       150.0       150.0       150.0    
        150.0       150.0       150.0       150.0       150.0       150.0       150.0       150.0       150.0       150.0    
        150.0       150.0       150.0       150.0       150.0       150.0       150.0       150.0       150.0       150.0    
        150.0       150.0       150.0       150.0       150.0       150.0       150.0       150.0       150.0       150.0    
        150.0       150.0       150.0       150.0       150.0       150.0       150.0       150.0       150.0       150.0    
        150.0       150.0       150.0       150.0       150.0       150.0       150.0       150.0       150.0       150.0    
        150.0    
  36    150.0       150.0       150.0       150.0       150.0       150.0       150.0       150.0       150.0       150.0    
        150.0       150.0       150.0       150.0       150.0       150.0       150.0       150.0       150.0       150.0    
        150.0       150.0       150.0       150.0       150.0       150.0       150.0       150.0       150.0       150.0    
        150.0       150.0       150.0       150.0       150.0       150.0       150.0       150.0       150.0       150.0    
        150.0       150.0       150.0       150.0       150.0       150.0       149.9       149.9       149.9       149.9    
        149.9       149.9       149.9       149.9       149.9       150.0       150.0       150.0       150.0       150.0    
        150.0       150.0       150.0       150.0       150.0       150.0       150.0       150.0       150.0       150.0    
        150.0       150.0       150.0       150.0       150.0       150.0       150.0       150.0       150.0       150.0    
        150.0       150.0       150.0       150.0       150.0       150.0       150.0       150.0       150.0       150.0    
        150.0       150.0       150.0       150.0       150.0       150.0       150.0       150.0       150.0       150.0    
        150.0    
  37    150.0       150.0       150.0       150.0       150.0       150.0       150.0       150.0       150.0       150.0    
        150.0       150.0       150.0       150.0       150.0       150.0       150.0       150.0       150.0       150.0    
        150.0       150.0       150.0       150.0       150.0       150.0       150.0       150.0       150.0       150.0    
        150.0       150.0       150.0       150.0       150.0       150.0       150.0       150.0       150.0       150.0    
        150.0       150.0       150.0       149.9       149.9       149.9       149.9       149.9       149.9       149.9    
        149.9       149.9       149.9       149.9       149.9       149.9       149.9       149.9       150.0       150.0    
        150.0       150.0       150.0       150.0       150.0       150.0       150.0       150.0       150.0       150.0    
        150.0       150.0       150.0       150.0       150.0       150.0       150.0       150.0       150.0       150.0    
        150.0       150.0       150.0       150.0       150.0       150.0       150.0       150.0       150.0       150.0    
        150.0       150.0       150.0       150.0       150.0       150.0       150.0       150.0       150.0       150.0    
        150.0    
  38    150.0       150.0       150.0       150.0       150.0       150.0       150.0       150.0       150.0       150.0    
        150.0       150.0       150.0       150.0       150.0       150.0       150.0       150.0       150.0       150.0    
        150.0       150.0       150.0       150.0       150.0       150.0       150.0       150.0       150.0       150.0    
        150.0       150.0       150.0       150.0       150.0       150.0       150.0       150.0       150.0       150.0    
        150.0       150.0       149.9       149.9       149.9       149.9       149.9       149.9       149.9       149.9    
        149.9       149.9       149.9       149.9       149.9       149.9       149.9       149.9       149.9       150.0    
        150.0       150.0       150.0       150.0       150.0       150.0       150.0       150.0       150.0       150.0    
        150.0       150.0       150.0       150.0       150.0       150.0       150.0       150.0       150.0       150.0    
        150.0       150.0       150.0       150.0       150.0       150.0       150.0       150.0       150.0       150.0    
        150.0       150.0       150.0       150.0       150.0       150.0       150.0       150.0       150.0       150.0    
        150.0    
  39    150.0       150.0       150.0       150.0       150.0       150.0       150.0       150.0       150.0       150.0    
        150.0       150.0       150.0       150.0       150.0       150.0       150.0       150.0       150.0       150.0    
        150.0       150.0       150.0       150.0       150.0       150.0       150.0       150.0       150.0       150.0    
        150.0       150.0       150.0       150.0       150.0       150.0       150.0       150.0       150.0       150.0    
        149.9       149.9       149.9       149.9       149.9       149.9       149.8       149.8       149.8       149.8    
        149.8       149.8       149.8       149.8       149.8       149.9       149.9       149.9       149.9       149.9    
        149.9       150.0       150.0       150.0       150.0       150.0       150.0       150.0       150.0       150.0    
        150.0       150.0       150.0       150.0       150.0       150.0       150.0       150.0       150.0       150.0    
        150.0       150.0       150.0       150.0       150.0       150.0       150.0       150.0       150.0       150.0    
        150.0       150.0       150.0       150.0       150.0       150.0       150.0       150.0       150.0       150.0    
        150.0    
  40    150.0       150.0       150.0       150.0       150.0       150.0       150.0       150.0       150.0       150.0    
        150.0       150.0       150.0       150.0       150.0       150.0       150.0       150.0       150.0       150.0    
        150.0       150.0       150.0       150.0       150.0       150.0       150.0       150.0       150.0       150.0    
        150.0       150.0       150.0       150.0       150.0       150.0       150.0       150.0       150.0       149.9    
        149.9       149.9       149.9       149.9       149.8       149.8       149.8       149.7       149.7       149.7    
        149.7       149.7       149.7       149.7       149.8       149.8       149.8       149.9       149.9       149.9    
        149.9       149.9       150.0       150.0       150.0       150.0       150.0       150.0       150.0       150.0    
        150.0       150.0       150.0       150.0       150.0       150.0       150.0       150.0       150.0       150.0    
        150.0       150.0       150.0       150.0       150.0       150.0       150.0       150.0       150.0       150.0    
        150.0       150.0       150.0       150.0       150.0       150.0       150.0       150.0       150.0       150.0    
        150.0    
  41    150.0       150.0       150.0       150.0       150.0       150.0       150.0       150.0       150.0       150.0    
        150.0       150.0       150.0       150.0       150.0       150.0       150.0       150.0       150.0       150.0    
        150.0       150.0       150.0       150.0       150.0       150.0       150.0       150.0       150.0       150.0    
        150.0       150.0       150.0       150.0       150.0       150.0       150.0       150.0       149.9       149.9    
        149.9       149.9       149.8       149.8       149.8       149.7       149.7       149.6       149.6       149.5    
        149.5       149.5       149.6       149.6       149.7       149.7       149.8       149.8       149.8       149.9    
        149.9       149.9       149.9       150.0       150.0       150.0       150.0       150.0       150.0       150.0    
        150.0       150.0       150.0       150.0       150.0       150.0       150.0       150.0       150.0       150.0    
        150.0       150.0       150.0       150.0       150.0       150.0       150.0       150.0       150.0       150.0    
        150.0       150.0       150.0       150.0       150.0       150.0       150.0       150.0       150.0       150.0    
        150.0    
  42    150.0       150.0       150.0       150.0       150.0       150.0       150.0       150.0       150.0       150.0    
        150.0       150.0       150.0       150.0       150.0       150.0       150.0       150.0       150.0       150.0    
        150.0       150.0       150.0       150.0       150.0       150.0       150.0       150.0       150.0       150.0    
        150.0       150.0       150.0       150.0       150.0       150.0       150.0       150.0       149.9       149.9    
        149.9       149.8       149.8       149.7       149.7       149.6       149.5       149.4       149.4       149.3    
        149.3       149.3       149.4       149.4       149.5       149.6       149.7       149.7       149.8       149.8    
        149.9       149.9       149.9       150.0       150.0       150.0       150.0       150.0       150.0       150.0    
        150.0       150.0       150.0       150.0       150.0       150.0       150.0       150.0       150.0       150.0    
        150.0       150.0       150.0       150.0       150.0       150.0       150.0       150.0       150.0       150.0    
        150.0       150.0       150.0       150.0       150.0       150.0       150.0       150.0       150.0       150.0    
        150.0    
  43    150.0       150.0       150.0       150.0       150.0       150.0       150.0       150.0       150.0       150.0    
        150.0       150.0       150.0       150.0       150.0       150.0       150.0       150.0       150.0       150.0    
        150.0       150.0       150.0       150.0       150.0       150.0       150.0       150.0       150.0       150.0    
        150.0       150.0       150.0       150.0       150.0       150.0       150.0       149.9       149.9       149.9    
        149.8       149.8       149.7       149.6       149.5       149.4       149.3       149.2       149.1       149.1    
        149.0       149.1       149.1       149.2       149.3       149.4       149.5       149.6       149.7       149.8    
        149.8       149.9       149.9       149.9       150.0       150.0       150.0       150.0       150.0       150.0    
        150.0       150.0       150.0       150.0       150.0       150.0       150.0       150.0       150.0       150.0    
        150.0       150.0       150.0       150.0       150.0       150.0       150.0       150.0       150.0       150.0    
        150.0       150.0       150.0       150.0       150.0       150.0       150.0       150.0       150.0       150.0    
        150.0    
  44    150.0       150.0       150.0       150.0       150.0       150.0       150.0       150.0       150.0       150.0    
        150.0       150.0       150.0       150.0       150.0       150.0       150.0       150.0       150.0       150.0    
        150.0       150.0       150.0       150.0       150.0       150.0       150.0       150.0       150.0       150.0    
        150.0       150.0       150.0       150.0       150.0       150.0       149.9       149.9       149.9       149.9    
        149.8       149.7       149.6       149.5       149.4       149.2       149.1       148.9       148.8       148.7    
        148.6       148.7       148.8       148.9       149.1       149.2       149.4       149.5       149.6       149.7    
        149.8       149.9       149.9       149.9       149.9       150.0       150.0       150.0       150.0       150.0    
        150.0       150.0       150.0       150.0       150.0       150.0       150.0       150.0       150.0       150.0    
        150.0       150.0       150.0       150.0       150.0       150.0       150.0       150.0       150.0       150.0    
        150.0       150.0       150.0       150.0       150.0       150.0       150.0       150.0       150.0       150.0    
        150.0    
  45    150.0       150.0       150.0       150.0       150.0       150.0       150.0       150.0       150.0       150.0    
        150.0       150.0       150.0       150.0       150.0       150.0       150.0       150.0       150.0       150.0    
        150.0       150.0       150.0       150.0       150.0       150.0       150.0       150.0       150.0       150.0    
        150.0       150.0       150.0       150.0       150.0       150.0       149.9       149.9       149.9       149.8    
        149.8       149.7       149.5       149.4       149.2       149.0       148.7       148.5       148.3       148.1    
        148.0       148.1       148.3       148.5       148.7       149.0       149.2       149.4       149.5       149.7    
        149.8       149.8       149.9       149.9       149.9       150.0       150.0       150.0       150.0       150.0    
        150.0       150.0       150.0       150.0       150.0       150.0       150.0       150.0       150.0       150.0    
        150.0       150.0       150.0       150.0       150.0       150.0       150.0       150.0       150.0       150.0    
        150.0       150.0       150.0       150.0       150.0       150.0       150.0       150.0       150.0       150.0    
        150.0    
  46    150.0       150.0       150.0       150.0       150.0       150.0       150.0       150.0       150.0       150.0    
        150.0       150.0       150.0       150.0       150.0       150.0       150.0       150.0       150.0       150.0    
        150.0       150.0       150.0       150.0       150.0       150.0       150.0       150.0       150.0       150.0    
        150.0       150.0       150.0       150.0       150.0       150.0       149.9       149.9       149.9       149.8    
        149.7       149.6       149.4       149.2       149.0       148.7       148.3       147.9       147.6       147.3    
        147.2       147.3       147.6       147.9       148.3       148.7       149.0       149.2       149.4       149.6    
        149.7       149.8       149.9       149.9       149.9       150.0       150.0       150.0       150.0       150.0    
        150.0       150.0       150.0       150.0       150.0       150.0       150.0       150.0       150.0       150.0    
        150.0       150.0       150.0       150.0       150.0       150.0       150.0       150.0       150.0       150.0    
        150.0       150.0       150.0       150.0       150.0       150.0       150.0       150.0       150.0       150.0    
        150.0    
  47    150.0       150.0       150.0       150.0       150.0       150.0       150.0       150.0       150.0       150.0    
        150.0       150.0       150.0       150.0       150.0       150.0       150.0       150.0       150.0       150.0    
        150.0       150.0       150.0       150.0       150.0       150.0       150.0       150.0       150.0       150.0    
        150.0       150.0       150.0       150.0       150.0       149.9       149.9       149.9       149.8       149.8    
        149.7       149.5       149.3       149.1       148.7       148.3       147.8       147.3       146.7       146.2    
        146.1       146.2       146.7       147.3       147.8       148.3       148.7       149.1       149.3       149.5    
        149.7       149.8       149.8       149.9       149.9       149.9       150.0       150.0       150.0       150.0    
        150.0       150.0       150.0       150.0       150.0       150.0       150.0       150.0       150.0       150.0    
        150.0       150.0       150.0       150.0       150.0       150.0       150.0       150.0       150.0       150.0    
        150.0       150.0       150.0       150.0       150.0       150.0       150.0       150.0       150.0       150.0    
        150.0    
  48    150.0       150.0       150.0       150.0       150.0       150.0       150.0       150.0       150.0       150.0    
        150.0       150.0       150.0       150.0       150.0       150.0       150.0       150.0       150.0       150.0    
        150.0       150.0       150.0       150.0       150.0       150.0       150.0       150.0       150.0       150.0    
        150.0       150.0       150.0       150.0       150.0       149.9       149.9       149.9       149.8       149.7    
        149.6       149.4       149.2       148.9       148.5       147.9       147.3       146.4       145.6       144.8    
        144.4       144.8       145.6       146.4       147.3       147.9       148.5       148.9       149.2       149.4    
        149.6       149.7       149.8       149.9       149.9       149.9       150.0       150.0       150.0       150.0    
        150.0       150.0       150.0       150.0       150.0       150.0       150.0       150.0       150.0       150.0    
        150.0       150.0       150.0       150.0       150.0       150.0       150.0       150.0       150.0       150.0    
        150.0       150.0       150.0       150.0       150.0       150.0       150.0       150.0       150.0       150.0    
        150.0    
  49    150.0       150.0       150.0       150.0       150.0       150.0       150.0       150.0       150.0       150.0    
        150.0       150.0       150.0       150.0       150.0       150.0       150.0       150.0       150.0       150.0    
        150.0       150.0       150.0       150.0       150.0       150.0       150.0       150.0       150.0       150.0    
        150.0       150.0       150.0       150.0       150.0       149.9       149.9       149.9       149.8       149.7    
        149.6       149.4       149.1       148.8       148.3       147.6       146.7       145.6       144.2       142.9    
        142.2       142.9       144.2       145.6       146.7       147.6       148.3       148.8       149.1       149.4    
        149.6       149.7       149.8       149.9       149.9       149.9       150.0       150.0       150.0       150.0    
        150.0       150.0       150.0       150.0       150.0       150.0       150.0       150.0       150.0       150.0    
        150.0       150.0       150.0       150.0       150.0       150.0       150.0       150.0       150.0       150.0    
        150.0       150.0       150.0       150.0       150.0       150.0       150.0       150.0       150.0       150.0    
        150.0    
  50    150.0       150.0       150.0       150.0       150.0       150.0       150.0       150.0       150.0       150.0    
        150.0       150.0       150.0       150.0       150.0       150.0       150.0       150.0       150.0       150.0    
        150.0       150.0       150.0       150.0       150.0       150.0       150.0       150.0       150.0       150.0    
        150.0       150.0       150.0       150.0       150.0       149.9       149.9       149.9       149.8       149.7    
        149.5       149.3       149.1       148.7       148.1       147.3       146.2       144.8       142.9       140.7    
        139.2       140.7       142.9       144.8       146.2       147.3       148.1       148.7       149.1       149.3    
        149.5       149.7       149.8       149.9       149.9       149.9       150.0       150.0       150.0       150.0    
        150.0       150.0       150.0       150.0       150.0       150.0       150.0       150.0       150.0       150.0    
        150.0       150.0       150.0       150.0       150.0       150.0       150.0       150.0       150.0       150.0    
        150.0       150.0       150.0       150.0       150.0       150.0       150.0       150.0       150.0       150.0    
        150.0    
  51    150.0       150.0       150.0       150.0       150.0       150.0       150.0       150.0       150.0       150.0    
        150.0       150.0       150.0       150.0       150.0       150.0       150.0       150.0       150.0       150.0    
        150.0       150.0       150.0       150.0       150.0       150.0       150.0       150.0       150.0       150.0    
        150.0       150.0       150.0       150.0       150.0       149.9       149.9       149.9       149.8       149.7    
        149.5       149.3       149.0       148.6       148.0       147.2       146.1       144.4       142.2       139.2    
        136.2       139.2       142.2       144.4       146.1       147.2       148.0       148.6       149.0       149.3    
        149.5       149.7       149.8       149.9       149.9       149.9       150.0       150.0       150.0       150.0    
        150.0       150.0       150.0       150.0       150.0       150.0       150.0       150.0       150.0       150.0    
        150.0       150.0       150.0       150.0       150.0       150.0       150.0       150.0       150.0       150.0    
        150.0       150.0       150.0       150.0       150.0       150.0       150.0       150.0       150.0       150.0    
        150.0    
  52    150.0       150.0       150.0       150.0       150.0       150.0       150.0       150.0       150.0       150.0    
        150.0       150.0       150.0       150.0       150.0       150.0       150.0       150.0       150.0       150.0    
        150.0       150.0       150.0       150.0       150.0       150.0       150.0       150.0       150.0       150.0    
        150.0       150.0       150.0       150.0       150.0       149.9       149.9       149.9       149.8       149.7    
        149.5       149.3       149.1       148.7       148.1       147.3       146.2       144.8       142.9       140.7    
        139.2       140.7       142.9       144.8       146.2       147.3       148.1       148.7       149.1       149.3    
        149.5       149.7       149.8       149.9       149.9       149.9       150.0       150.0       150.0       150.0    
        150.0       150.0       150.0       150.0       150.0       150.0       150.0       150.0       150.0       150.0    
        150.0       150.0       150.0       150.0       150.0       150.0       150.0       150.0       150.0       150.0    
        150.0       150.0       150.0       150.0       150.0       150.0       150.0       150.0       150.0       150.0    
        150.0    
  53    150.0       150.0       150.0       150.0       150.0       150.0       150.0       150.0       150.0       150.0    
        150.0       150.0       150.0       150.0       150.0       150.0       150.0       150.0       150.0       150.0    
        150.0       150.0       150.0       150.0       150.0       150.0       150.0       150.0       150.0       150.0    
        150.0       150.0       150.0       150.0       150.0       149.9       149.9       149.9       149.8       149.7    
        149.6       149.4       149.1       148.8       148.3       147.6       146.7       145.6       144.2       142.9    
        142.2       142.9       144.2       145.6       146.7       147.6       148.3       148.8       149.1       149.4    
[...]
        150.0    
  88    150.0       150.0       150.0       150.0       150.0       150.0       150.0       150.0       150.0       150.0    
        150.0       150.0       150.0       150.0       150.0       150.0       150.0       150.0       150.0       150.0    
        150.0       150.0       150.0       150.0       150.0       150.0       150.0       150.0       150.0       150.0    
        150.0       150.0       150.0       150.0       150.0       150.0       150.0       150.0       150.0       150.0    
        150.0       150.0       150.0       150.0       150.0       150.0       150.0       150.0       150.0       150.0    
        150.0       150.0       150.0       150.0       150.0       150.0       150.0       150.0       150.0       150.0    
        150.0       150.0       150.0       150.0       150.0       150.0       150.0       150.0       150.0       150.0    
        150.0       150.0       150.0       150.0       150.0       150.0       150.0       150.0       150.0       150.0    
        150.0       150.0       150.0       150.0       150.0       150.0       150.0       150.0       150.0       150.0    
        150.0       150.0       150.0       150.0       150.0       150.0       150.0       150.0       150.0       150.0    
        150.0    
  89    150.0       150.0       150.0       150.0       150.0       150.0       150.0       150.0       150.0       150.0    
        150.0       150.0       150.0       150.0       150.0       150.0       150.0       150.0       150.0       150.0    
        150.0       150.0       150.0       150.0       150.0       150.0       150.0       150.0       150.0       150.0    
        150.0       150.0       150.0       150.0       150.0       150.0       150.0       150.0       150.0       150.0    
        150.0       150.0       150.0       150.0       150.0       150.0       150.0       150.0       150.0       150.0    
        150.0       150.0       150.0       150.0       150.0       150.0       150.0       150.0       150.0       150.0    
        150.0       150.0       150.0       150.0       150.0       150.0       150.0       150.0       150.0       150.0    
        150.0       150.0       150.0       150.0       150.0       150.0       150.0       150.0       150.0       150.0    
        150.0       150.0       150.0       150.0       150.0       150.0       150.0       150.0       150.0       150.0    
        150.0       150.0       150.0       150.0       150.0       150.0       150.0       150.0       150.0       150.0    
        150.0    
  90    150.0       150.0       150.0       150.0       150.0       150.0       150.0       150.0       150.0       150.0    
        150.0       150.0       150.0       150.0       150.0       150.0       150.0       150.0       150.0       150.0    
        150.0       150.0       150.0       150.0       150.0       150.0       150.0       150.0       150.0       150.0    
        150.0       150.0       150.0       150.0       150.0       150.0       150.0       150.0       150.0       150.0    
        150.0       150.0       150.0       150.0       150.0       150.0       150.0       150.0       150.0       150.0    
        150.0       150.0       150.0       150.0       150.0       150.0       150.0       150.0       150.0       150.0    
        150.0       150.0       150.0       150.0       150.0       150.0       150.0       150.0       150.0       150.0    
        150.0       150.0       150.0       150.0       150.0       150.0       150.0       150.0       150.0       150.0    
        150.0       150.0       150.0       150.0       150.0       150.0       150.0       150.0       150.0       150.0    
        150.0       150.0       150.0       150.0       150.0       150.0       150.0       150.0       150.0       150.0    
        150.0    
  91    150.0       150.0       150.0       150.0       150.0       150.0       150.0       150.0       150.0       150.0    
        150.0       150.0       150.0       150.0       150.0       150.0       150.0       150.0       150.0       150.0    
        150.0       150.0       150.0       150.0       150.0       150.0       150.0       150.0       150.0       150.0    
        150.0       150.0       150.0       150.0       150.0       150.0       150.0       150.0       150.0       150.0    
        150.0       150.0       150.0       150.0       150.0       150.0       150.0       150.0       150.0       150.0    
        150.0       150.0       150.0       150.0       150.0       150.0       150.0       150.0       150.0       150.0    
        150.0       150.0       150.0       150.0       150.0       150.0       150.0       150.0       150.0       150.0    
        150.0       150.0       150.0       150.0       150.0       150.0       150.0       150.0       150.0       150.0    
        150.0       150.0       150.0       150.0       150.0       150.0       150.0       150.0       150.0       150.0    
        150.0       150.0       150.0       150.0       150.0       150.0       150.0       150.0       150.0       150.0    
        150.0    
  92    150.0       150.0       150.0       150.0       150.0       150.0       150.0       150.0       150.0       150.0    
        150.0       150.0       150.0       150.0       150.0       150.0       150.0       150.0       150.0       150.0    
        150.0       150.0       150.0       150.0       150.0       150.0       150.0       150.0       150.0       150.0    
        150.0       150.0       150.0       150.0       150.0       150.0       150.0       150.0       150.0       150.0    
        150.0       150.0       150.0       150.0       150.0       150.0       150.0       150.0       150.0       150.0    
        150.0       150.0       150.0       150.0       150.0       150.0       150.0       150.0       150.0       150.0    
        150.0       150.0       150.0       150.0       150.0       150.0       150.0       150.0       150.0       150.0    
        150.0       150.0       150.0       150.0       150.0       150.0       150.0       150.0       150.0       150.0    
        150.0       150.0       150.0       150.0       150.0       150.0       150.0       150.0       150.0       150.0    
        150.0       150.0       150.0       150.0       150.0       150.0       150.0       150.0       150.0       150.0    
        150.0    
  93    150.0       150.0       150.0       150.0       150.0       150.0       150.0       150.0       150.0       150.0    
        150.0       150.0       150.0       150.0       150.0       150.0       150.0       150.0       150.0       150.0    
        150.0       150.0       150.0       150.0       150.0       150.0       150.0       150.0       150.0       150.0    
        150.0       150.0       150.0       150.0       150.0       150.0       150.0       150.0       150.0       150.0    
        150.0       150.0       150.0       150.0       150.0       150.0       150.0       150.0       150.0       150.0    
        150.0       150.0       150.0       150.0       150.0       150.0       150.0       150.0       150.0       150.0    
        150.0       150.0       150.0       150.0       150.0       150.0       150.0       150.0       150.0       150.0    
        150.0       150.0       150.0       150.0       150.0       150.0       150.0       150.0       150.0       150.0    
        150.0       150.0       150.0       150.0       150.0       150.0       150.0       150.0       150.0       150.0    
        150.0       150.0       150.0       150.0       150.0       150.0       150.0       150.0       150.0       150.0    
        150.0    
  94    150.0       150.0       150.0       150.0       150.0       150.0       150.0       150.0       150.0       150.0    
        150.0       150.0       150.0       150.0       150.0       150.0       150.0       150.0       150.0       150.0    
        150.0       150.0       150.0       150.0       150.0       150.0       150.0       150.0       150.0       150.0    
        150.0       150.0       150.0       150.0       150.0       150.0       150.0       150.0       150.0       150.0    
        150.0       150.0       150.0       150.0       150.0       150.0       150.0       150.0       150.0       150.0    
        150.0       150.0       150.0       150.0       150.0       150.0       150.0       150.0       150.0       150.0    
        150.0       150.0       150.0       150.0       150.0       150.0       150.0       150.0       150.0       150.0    
        150.0       150.0       150.0       150.0       150.0       150.0       150.0       150.0       150.0       150.0    
        150.0       150.0       150.0       150.0       150.0       150.0       150.0       150.0       150.0       150.0    
        150.0       150.0       150.0       150.0       150.0       150.0       150.0       150.0       150.0       150.0    
        150.0    
  95    150.0       150.0       150.0       150.0       150.0       150.0       150.0       150.0       150.0       150.0    
        150.0       150.0       150.0       150.0       150.0       150.0       150.0       150.0       150.0       150.0    
        150.0       150.0       150.0       150.0       150.0       150.0       150.0       150.0       150.0       150.0    
        150.0       150.0       150.0       150.0       150.0       150.0       150.0       150.0       150.0       150.0    
        150.0       150.0       150.0       150.0       150.0       150.0       150.0       150.0       150.0       150.0    
        150.0       150.0       150.0       150.0       150.0       150.0       150.0       150.0       150.0       150.0    
        150.0       150.0       150.0       150.0       150.0       150.0       150.0       150.0       150.0       150.0    
        150.0       150.0       150.0       150.0       150.0       150.0       150.0       150.0       150.0       150.0    
        150.0       150.0       150.0       150.0       150.0       150.0       150.0       150.0       150.0       150.0    
        150.0       150.0       150.0       150.0       150.0       150.0       150.0       150.0       150.0       150.0    
        150.0    
  96    150.0       150.0       150.0       150.0       150.0       150.0       150.0       150.0       150.0       150.0    
        150.0       150.0       150.0       150.0       150.0       150.0       150.0       150.0       150.0       150.0    
        150.0       150.0       150.0       150.0       150.0       150.0       150.0       150.0       150.0       150.0    
        150.0       150.0       150.0       150.0       150.0       150.0       150.0       150.0       150.0       150.0    
        150.0       150.0       150.0       150.0       150.0       150.0       150.0       150.0       150.0       150.0    
        150.0       150.0       150.0       150.0       150.0       150.0       150.0       150.0       150.0       150.0    
        150.0       150.0       150.0       150.0       150.0       150.0       150.0       150.0       150.0       150.0    
        150.0       150.0       150.0       150.0       150.0       150.0       150.0       150.0       150.0       150.0    
        150.0       150.0       150.0       150.0       150.0       150.0       150.0       150.0       150.0       150.0    
        150.0       150.0       150.0       150.0       150.0       150.0       150.0       150.0       150.0       150.0    
        150.0    
  97    150.0       150.0       150.0       150.0       150.0       150.0       150.0       150.0       150.0       150.0    
        150.0       150.0       150.0       150.0       150.0       150.0       150.0       150.0       150.0       150.0    
        150.0       150.0       150.0       150.0       150.0       150.0       150.0       150.0       150.0       150.0    
        150.0       150.0       150.0       150.0       150.0       150.0       150.0       150.0       150.0       150.0    
        150.0       150.0       150.0       150.0       150.0       150.0       150.0       150.0       150.0       150.0    
        150.0       150.0       150.0       150.0       150.0       150.0       150.0       150.0       150.0       150.0    
        150.0       150.0       150.0       150.0       150.0       150.0       150.0       150.0       150.0       150.0    
        150.0       150.0       150.0       150.0       150.0       150.0       150.0       150.0       150.0       150.0    
        150.0       150.0       150.0       150.0       150.0       150.0       150.0       150.0       150.0       150.0    
        150.0       150.0       150.0       150.0       150.0       150.0       150.0       150.0       150.0       150.0    
        150.0    
  98    150.0       150.0       150.0       150.0       150.0       150.0       150.0       150.0       150.0       150.0    
        150.0       150.0       150.0       150.0       150.0       150.0       150.0       150.0       150.0       150.0    
        150.0       150.0       150.0       150.0       150.0       150.0       150.0       150.0       150.0       150.0    
        150.0       150.0       150.0       150.0       150.0       150.0       150.0       150.0       150.0       150.0    
        150.0       150.0       150.0       150.0       150.0       150.0       150.0       150.0       150.0       150.0    
        150.0       150.0       150.0       150.0       150.0       150.0       150.0       150.0       150.0       150.0    
        150.0       150.0       150.0       150.0       150.0       150.0       150.0       150.0       150.0       150.0    
        150.0       150.0       150.0       150.0       150.0       150.0       150.0       150.0       150.0       150.0    
        150.0       150.0       150.0       150.0       150.0       150.0       150.0       150.0       150.0       150.0    
        150.0       150.0       150.0       150.0       150.0       150.0       150.0       150.0       150.0       150.0    
        150.0    
  99    150.0       150.0       150.0       150.0       150.0       150.0       150.0       150.0       150.0       150.0    
        150.0       150.0       150.0       150.0       150.0       150.0       150.0       150.0       150.0       150.0    
        150.0       150.0       150.0       150.0       150.0       150.0       150.0       150.0       150.0       150.0    
        150.0       150.0       150.0       150.0       150.0       150.0       150.0       150.0       150.0       150.0    
        150.0       150.0       150.0       150.0       150.0       150.0       150.0       150.0       150.0       150.0    
        150.0       150.0       150.0       150.0       150.0       150.0       150.0       150.0       150.0       150.0    
        150.0       150.0       150.0       150.0       150.0       150.0       150.0       150.0       150.0       150.0    
        150.0       150.0       150.0       150.0       150.0       150.0       150.0       150.0       150.0       150.0    
        150.0       150.0       150.0       150.0       150.0       150.0       150.0       150.0       150.0       150.0    
        150.0       150.0       150.0       150.0       150.0       150.0       150.0       150.0       150.0       150.0    
        150.0    
 100    150.0       150.0       150.0       150.0       150.0       150.0       150.0       150.0       150.0       150.0    
        150.0       150.0       150.0       150.0       150.0       150.0       150.0       150.0       150.0       150.0    
        150.0       150.0       150.0       150.0       150.0       150.0       150.0       150.0       150.0       150.0    
        150.0       150.0       150.0       150.0       150.0       150.0       150.0       150.0       150.0       150.0    
        150.0       150.0       150.0       150.0       150.0       150.0       150.0       150.0       150.0       150.0    
        150.0       150.0       150.0       150.0       150.0       150.0       150.0       150.0       150.0       150.0    
        150.0       150.0       150.0       150.0       150.0       150.0       150.0       150.0       150.0       150.0    
        150.0       150.0       150.0       150.0       150.0       150.0       150.0       150.0       150.0       150.0    
        150.0       150.0       150.0       150.0       150.0       150.0       150.0       150.0       150.0       150.0    
        150.0       150.0       150.0       150.0       150.0       150.0       150.0       150.0       150.0       150.0    
        150.0    
 101    150.0       150.0       150.0       150.0       150.0       150.0       150.0       150.0       150.0       150.0    
        150.0       150.0       150.0       150.0       150.0       150.0       150.0       150.0       150.0       150.0    
        150.0       150.0       150.0       150.0       150.0       150.0       150.0       150.0       150.0       150.0    
        150.0       150.0       150.0       150.0       150.0       150.0       150.0       150.0       150.0       150.0    
        150.0       150.0       150.0       150.0       150.0       150.0       150.0       150.0       150.0       150.0    
        150.0       150.0       150.0       150.0       150.0       150.0       150.0       150.0       150.0       150.0    
        150.0       150.0       150.0       150.0       150.0       150.0       150.0       150.0       150.0       150.0    
        150.0       150.0       150.0       150.0       150.0       150.0       150.0       150.0       150.0       150.0    
        150.0       150.0       150.0       150.0       150.0       150.0       150.0       150.0       150.0       150.0    
        150.0       150.0       150.0       150.0       150.0       150.0       150.0       150.0       150.0       150.0    
        150.0    

 HEAD WILL BE SAVED ON UNIT 1014 AT END OF TIME STEP   10, STRESS PERIOD    1


  VOLUME BUDGET FOR ENTIRE MODEL AT END OF TIME STEP   10, STRESS PERIOD   1
  ---------------------------------------------------------------------------------------------------

     CUMULATIVE VOLUME      L**3       RATES FOR THIS TIME STEP      L**3/T          PACKAGE NAME    
     ------------------                 ------------------------                     ----------------

           IN:                                      IN:
           ---                                      ---
              STO-SS =       60316.9889                STO-SS =       57995.4848     STORAGE                          
                 WEL =           0.0000                   WEL =           0.0000     WEL_0                            

            TOTAL IN =       60316.9889              TOTAL IN =       57995.4848

          OUT:                                     OUT:
          ----                                     ----
              STO-SS =       2.5869E-08                STO-SS =       6.9667E-10     STORAGE                          
                 WEL =       60320.0000                   WEL =       58000.0000     WEL_0                            

           TOTAL OUT =       60320.0000             TOTAL OUT =       58000.0000

            IN - OUT =          -3.0111              IN - OUT =          -4.5152

 PERCENT DISCREPANCY =          -0.00     PERCENT DISCREPANCY =          -0.01




         TIME SUMMARY AT END OF TIME STEP   10 IN STRESS PERIOD    1
                    SECONDS     MINUTES      HOURS       DAYS        YEARS
                    -----------------------------------------------------------
   TIME STEP LENGTH  8985.6      149.76      2.4960     0.10400     2.84736E-04
 STRESS PERIOD TIME  89856.      1497.6      24.960      1.0400     2.84736E-03
         TOTAL TIME  89856.      1497.6      24.960      1.0400     2.84736E-03


end timestep

