                                   MODFLOW 6
                U.S. GEOLOGICAL SURVEY MODULAR HYDROLOGIC MODEL
                          GROUNDWATER FLOW MODEL (GWF)
                            VERSION 6.5.0 05/23/2024

   MODFLOW 6 compiled May 23 2024 18:02:47 with Intel(R) Fortran Intel(R) 64
   Compiler Classic for applications running on Intel(R) 64, Version 2021.7.0
                             Build 20220726_000000

This software has been approved for release by the U.S. Geological 
Survey (USGS). Although the software has been subjected to rigorous 
review, the USGS reserves the right to update the software as needed 
pursuant to further analysis and review. No warranty, expressed or 
implied, is made by the USGS or the U.S. Government as to the 
functionality of the software and related material nor shall the 
fact of release constitute any such warranty. Furthermore, the 
software is released on condition that neither the USGS nor the U.S. 
Government shall be held liable for any damages resulting from its 
authorized or unauthorized use. Also refer to the USGS Water 
Resources Software User Rights Notice for complete use, copyright, 
and distribution information.


As a work of the United States Government, this USGS product is 
in the public domain within the United States. You can copy, 
modify, distribute, and perform the work, even for commercial 
purposes, all without asking permission. Additionally, USGS 
waives copyright and related rights in the work worldwide 
through CC0 1.0 Universal Public Domain Dedication 
(https://creativecommons.org/publicdomain/zero/1.0/).

The following GNU Lesser General Public License (LGPL) libraries
are used in this USGS product:

    SPARSKIT version 2.0
      ilut, luson, and qsplit 
      (https://www-users.cse.umn.edu/~saad/software/SPARSKIT/)

    RCM - Reverse Cuthill McKee Ordering
      (https://people.math.sc.edu/Burkardt/f_src/rcm/rcm.html)

    BLAS - Basic Linear Algebra Subprograms Level 1
      (https://people.math.sc.edu/Burkardt/f_src/blas1_d/blas1_d.html)

    SPARSEKIT - Sparse Matrix Utility Package
      amux, dperm, dvperm, rperm, and cperm
      (https://people.sc.fsu.edu/~jburkardt/f77_src/sparsekit/sparsekit.html)

The following BSD-3 License libraries are used in this USGS product:

    Modern Fortran DAG Library
      Copyright (c) 2018, Jacob Williams
      All rights reserved.
      (https://github.com/jacobwilliams/daglib)

MODFLOW 6 compiler options: -Isrc/libmf6core.a.p -Isrc -I../src
-Isrc/libmf6_external.a.p -D_FILE_OFFSET_BITS=64 -warn general -warn
truncated_source -stand=f08 -g -traceback -O2 -fpe0 -no-heap-arrays
-traceback -diag-disable:7416 -diag-disable:7025 -diag-disable:5268 -fPIC
-module src/libmf6core.a.p
-gen-dep=src/libmf6core.a.p/Utilities_compilerversion.F90.o
-gen-depformat=make -o src/libmf6core.a.p/Utilities_compilerversion.F90.o -c

System command used to initiate simulation:
/home/laura/modflow/mf6

MODFLOW was compiled using uniform precision.

Real Variables
  KIND: 8
  TINY (smallest non-zero value):    2.225074-308
  HUGE (largest value):    1.797693+308
  PRECISION: 15
  SIZE IN BITS: 64

Integer Variables
  KIND: 4
  HUGE (largest value): 2147483647
  SIZE IN BITS: 32

Long Integer Variables
  KIND: 8
  HUGE (largest value): 9223372036854775807
  SIZE IN BITS: 64

Logical Variables
  KIND: 4
  SIZE IN BITS: 32
 
 NAMEFILE OPTIONS:
    FLOWS WILL BE SAVED TO BUDGET FILE SPECIFIED IN OUTPUT CONTROL
 END NAMEFILE OPTIONS:

 DIS -- STRUCTURED GRID DISCRETIZATION PACKAGE, VERSION 2 : 3/27/2014 - INPUT READ FROM MEMPATH: __INPUT__/CONFINED_AQUIFER/DIS                    


 NPF -- NODE PROPERTY FLOW PACKAGE, VERSION 1, 3/30/2015 INPUT READ FROM MEMPATH: __INPUT__/CONFINED_AQUIFER/NPF                    


 IC -- Initial Conditions Package, Version 8, 3/28/2015 input read from mempath: __INPUT__/CONFINED_AQUIFER/IC                     


 Setting Discretization Options
 End Setting Discretization Options

 Setting Discretization Dimensions
    NLAY = 1
    NROW = 201
    NCOL = 201
 End Setting Discretization Dimensions

 Setting Discretization Griddata
    DELR set from input file
    DELC set from input file
    TOP set from input file
    BOTM set from input file
 End Setting Discretization Griddata

 Setting NPF Options
    Specific discharge will be calculated at cell centers and written to DATA-SPDIS in budget file when requested.
 End Setting NPF Options

 Setting NPF Griddata
    ICELLTYPE set from input file
    K set from input file
    K33 not provided.  Setting K33 = K.
    K22 not provided.  Setting K22 = K.
 End Setting NPF Griddata


 WEL   -- WEL PACKAGE, VERSION 8, 2/22/2014 INPUT READ FROM MEMPATH: __INPUT__/CONFINED_AQUIFER/WEL_0                  

 PROCESSING WEL BASE OPTIONS
 END OF WEL BASE OPTIONS

 PROCESSING WEL OPTIONS
 END OF WEL OPTIONS

 PROCESSING WEL BASE DIMENSIONS
    MAXBOUND =       1
 END OF WEL BASE DIMENSIONS

 CHD   -- CHD PACKAGE, VERSION 8, 2/22/2014 INPUT READ FROM MEMPATH: __INPUT__/CONFINED_AQUIFER/CHD_0                  

 PROCESSING CHD BASE OPTIONS
 END OF CHD BASE OPTIONS

 PROCESSING CHD BASE DIMENSIONS
    MAXBOUND =     201
 END OF CHD BASE DIMENSIONS
    STRT set from input file

 STO -- STORAGE PACKAGE, VERSION 1, 5/19/2014 INPUT READ FROM UNIT 1006


 # File generated by Flopy version 3.7.0 on 08/06/2024 at 20:31:50.
 PROCESSING STORAGE OPTIONS
 END OF STORAGE OPTIONS
 PROCESSING GRIDDATA

                 ICONVERT = 0

         SPECIFIC STORAGE =  0.4761905E-04

           SPECIFIC YIELD =  0.1500000    
 END PROCESSING GRIDDATA

The observation utility is active for "CONFINED_AQUIFER"
 # File generated by Flopy version 3.7.0 on 08/06/2024 at 20:31:50.

Processing observation options:


    BINARY GRID INFORMATION WILL BE WRITTEN TO:
      UNIT NUMBER: 1014
      FILE NAME: confined_aquifer.dis.grb

 OPENED confined_aquifer.dis.grb
 FILE TYPE:DATA(BINARY)   UNIT 1014   STATUS:REPLACE             
 FORMAT:UNFORMATTED            ACCESS:STREAM              
 ACTION:READWRITE           

      THE LAST TIME STEP WILL BE PRINTED
      THE LAST TIME STEP WILL BE PRINTED

start timestep kper="1" kstp="1" mode="normal"



 PROCESSING STORAGE PERIOD DATA
 END PROCESSING STORAGE PERIOD DATA


 STRESS PERIOD 1 IS STEADY-STATE

1
  HEAD IN LAYER   1 AT END OF TIME STEP   1 IN STRESS PERIOD    1
  ---------------------------------------------------------------------------

 ........................................................................................................................................................................................................................................................................................................................................................................................................................................................................................................................................................................................................................................................................................................................................................................................................................................................................................................................................................................................................................................
   1    140.0       140.0       140.0       140.0       140.0       140.0       140.0       140.0       140.0       140.0    
        140.0       140.0       140.0       140.0       140.0       140.0       140.0       140.0       140.0       140.0    
        140.0       140.0       140.0       140.0       140.0       140.0       140.0       140.0       140.0       140.0    
        140.0       140.0       140.0       140.0       140.0       140.0       140.0       140.0       140.0       140.0    
        140.0       140.0       140.0       140.0       140.0       140.0       140.0       140.0       140.0       140.0    
        140.0       140.0       140.0       140.0       140.0       140.0       140.0       140.0       140.0       140.0    
        140.0       140.0       140.0       140.0       140.0       140.0       140.0       140.0       140.0       140.0    
        140.0       140.0       140.0       140.0       140.0       140.0       140.0       140.0       140.0       140.0    
        140.0       140.0       140.0       140.0       140.0       140.0       140.0       140.0       140.0       140.0    
        140.0       140.0       140.0       140.0       140.0       140.0       140.0       140.0       140.0       140.0    
        140.0       140.0       140.0       140.0       140.0       140.0       140.0       140.0       140.0       140.0    
        140.0       140.0       140.0       140.0       140.0       140.0       140.0       140.0       140.0       140.0    
        140.0       140.0       140.0       140.0       140.0       140.0       140.0       140.0       140.0       140.0    
        140.0       140.0       140.0       140.0       140.0       140.0       140.0       140.0       140.0       140.0    
        140.0       140.0       140.0       140.0       140.0       140.0       140.0       140.0       140.0       140.0    
        140.0       140.0       140.0       140.0       140.0       140.0       140.0       140.0       140.0       140.0    
        140.0       140.0       140.0       140.0       140.0       140.0       140.0       140.0       140.0       140.0    
        140.0       140.0       140.0       140.0       140.0       140.0       140.0       140.0       140.0       140.0    
        140.0       140.0       140.0       140.0       140.0       140.0       140.0       140.0       140.0       140.0    
        140.0       140.0       140.0       140.0       140.0       140.0       140.0       140.0       140.0       140.0    
        140.0    
   2    140.0       140.0       140.0       140.0       140.0       140.0       140.0       140.0       140.0       140.0    
        140.0       140.0       140.0       140.0       140.0       140.0       140.0       140.0       140.0       140.0    
        140.0       140.0       140.0       140.0       140.0       140.0       140.0       140.0       140.0       140.0    
        140.0       140.0       140.0       140.0       140.0       140.0       140.0       140.0       140.0       140.0    
        140.0       140.0       140.0       140.0       140.0       140.0       140.0       140.0       140.0       140.0    
        140.0       140.0       140.0       140.0       140.0       140.0       140.0       140.0       140.0       140.0    
        140.0       140.0       140.0       140.0       140.0       140.0       140.0       140.0       140.0       140.0    
        140.0       140.0       140.0       140.0       140.0       140.0       140.0       140.0       140.0       140.0    
        140.0       140.0       140.0       140.0       140.0       140.0       140.0       140.0       140.0       140.0    
        140.0       140.0       140.0       140.0       140.0       140.0       140.0       140.0       140.0       140.0    
        140.0       140.0       140.0       140.0       140.0       140.0       140.0       140.0       140.0       140.0    
        140.0       140.0       140.0       140.0       140.0       140.0       140.0       140.0       140.0       140.0    
        140.0       140.0       140.0       140.0       140.0       140.0       140.0       140.0       140.0       140.0    
        140.0       140.0       140.0       140.0       140.0       140.0       140.0       140.0       140.0       140.0    
        140.0       140.0       140.0       140.0       140.0       140.0       140.0       140.0       140.0       140.0    
        140.0       140.0       140.0       140.0       140.0       140.0       140.0       140.0       140.0       140.0    
        140.0       140.0       140.0       140.0       140.0       140.0       140.0       140.0       140.0       140.0    
        140.0       140.0       140.0       140.0       140.0       140.0       140.0       140.0       140.0       140.0    
        140.0       140.0       140.0       140.0       140.0       140.0       140.0       140.0       140.0       140.0    
        140.0       140.0       140.0       140.0       140.0       140.0       140.0       140.0       140.0       140.0    
        140.0    
   3    140.0       140.0       140.0       140.0       140.0       140.0       140.0       140.0       140.0       140.0    
        140.0       140.0       140.0       140.0       140.0       140.0       140.0       140.0       140.0       140.0    
        140.0       140.0       140.0       140.0       140.0       140.0       140.0       140.0       140.0       140.0    
        140.0       140.0       140.0       140.0       140.0       140.0       140.0       140.0       140.0       140.0    
        140.0       140.0       140.0       140.0       140.0       140.0       140.0       140.0       140.0       140.0    
        140.0       140.0       140.0       140.0       140.0       140.0       140.0       140.0       140.0       140.0    
        140.0       140.0       140.0       140.0       140.0       140.0       140.0       140.0       140.0       140.0    
        140.0       140.0       140.0       140.0       140.0       140.0       140.0       140.0       140.0       140.0    
        140.0       140.0       140.0       140.0       140.0       140.0       140.0       140.0       140.0       140.0    
        140.0       140.0       140.0       140.0       140.0       140.0       140.0       140.0       140.0       140.0    
        140.0       140.0       140.0       140.0       140.0       140.0       140.0       140.0       140.0       140.0    
        140.0       140.0       140.0       140.0       140.0       140.0       140.0       140.0       140.0       140.0    
        140.0       140.0       140.0       140.0       140.0       140.0       140.0       140.0       140.0       140.0    
        140.0       140.0       140.0       140.0       140.0       140.0       140.0       140.0       140.0       140.0    
        140.0       140.0       140.0       140.0       140.0       140.0       140.0       140.0       140.0       140.0    
        140.0       140.0       140.0       140.0       140.0       140.0       140.0       140.0       140.0       140.0    
        140.0       140.0       140.0       140.0       140.0       140.0       140.0       140.0       140.0       140.0    
        140.0       140.0       140.0       140.0       140.0       140.0       140.0       140.0       140.0       140.0    
        140.0       140.0       140.0       140.0       140.0       140.0       140.0       140.0       140.0       140.0    
        140.0       140.0       140.0       140.0       140.0       140.0       140.0       140.0       140.0       140.0    
        140.0    
   4    140.0       140.0       140.0       140.0       140.0       140.0       140.0       140.0       140.0       140.0    
        140.0       140.0       140.0       140.0       140.0       140.0       140.0       140.0       140.0       140.0    
        140.0       140.0       140.0       140.0       140.0       140.0       140.0       140.0       140.0       140.0    
        140.0       140.0       140.0       140.0       140.0       140.0       140.0       140.0       140.0       140.0    
        140.0       140.0       140.0       140.0       140.0       140.0       140.0       140.0       140.0       140.0    
        140.0       140.0       140.0       140.0       140.0       140.0       140.0       140.0       140.0       140.0    
        140.0       140.0       140.0       140.0       140.0       140.0       140.0       140.0       140.0       140.0    
        140.0       140.0       140.0       140.0       140.0       140.0       140.0       140.0       140.0       140.0    
        140.0       140.0       140.0       140.0       140.0       140.0       140.0       140.0       140.0       140.0    
        140.0       140.0       140.0       140.0       140.0       140.0       140.0       140.0       140.0       140.0    
        140.0       140.0       140.0       140.0       140.0       140.0       140.0       140.0       140.0       140.0    
        140.0       140.0       140.0       140.0       140.0       140.0       140.0       140.0       140.0       140.0    
        140.0       140.0       140.0       140.0       140.0       140.0       140.0       140.0       140.0       140.0    
        140.0       140.0       140.0       140.0       140.0       140.0       140.0       140.0       140.0       140.0    
        140.0       140.0       140.0       140.0       140.0       140.0       140.0       140.0       140.0       140.0    
        140.0       140.0       140.0       140.0       140.0       140.0       140.0       140.0       140.0       140.0    
        140.0       140.0       140.0       140.0       140.0       140.0       140.0       140.0       140.0       140.0    
        140.0       140.0       140.0       140.0       140.0       140.0       140.0       140.0       140.0       140.0    
        140.0       140.0       140.0       140.0       140.0       140.0       140.0       140.0       140.0       140.0    
        140.0       140.0       140.0       140.0       140.0       140.0       140.0       140.0       140.0       140.0    
        140.0    
   5    140.0       140.0       140.0       140.0       140.0       140.0       140.0       140.0       140.0       140.0    
        140.0       140.0       140.0       140.0       140.0       140.0       140.0       140.0       140.0       140.0    
        140.0       140.0       140.0       140.0       140.0       140.0       140.0       140.0       140.0       140.0    
        140.0       140.0       140.0       140.0       140.0       140.0       140.0       140.0       140.0       140.0    
        140.0       140.0       140.0       140.0       140.0       140.0       140.0       140.0       140.0       140.0    
        140.0       140.0       140.0       140.0       140.0       140.0       140.0       140.0       140.0       140.0    
        140.0       140.0       140.0       140.0       140.0       140.0       140.0       140.0       140.0       140.0    
        140.0       140.0       140.0       140.0       140.0       140.0       140.0       140.0       140.0       140.0    
        140.0       140.0       140.0       140.0       140.0       140.0       140.0       140.0       140.0       140.0    
        140.0       140.0       140.0       140.0       140.0       140.0       140.0       140.0       140.0       140.0    
        140.0       140.0       140.0       140.0       140.0       140.0       140.0       140.0       140.0       140.0    
        140.0       140.0       140.0       140.0       140.0       140.0       140.0       140.0       140.0       140.0    
        140.0       140.0       140.0       140.0       140.0       140.0       140.0       140.0       140.0       140.0    
        140.0       140.0       140.0       140.0       140.0       140.0       140.0       140.0       140.0       140.0    
        140.0       140.0       140.0       140.0       140.0       140.0       140.0       140.0       140.0       140.0    
        140.0       140.0       140.0       140.0       140.0       140.0       140.0       140.0       140.0       140.0    
        140.0       140.0       140.0       140.0       140.0       140.0       140.0       140.0       140.0       140.0    
        140.0       140.0       140.0       140.0       140.0       140.0       140.0       140.0       140.0       140.0    
        140.0       140.0       140.0       140.0       140.0       140.0       140.0       140.0       140.0       140.0    
        140.0       140.0       140.0       140.0       140.0       140.0       140.0       140.0       140.0       140.0    
        140.0    
   6    140.0       140.0       140.0       140.0       140.0       140.0       140.0       140.0       140.0       140.0    
        140.0       140.0       140.0       140.0       140.0       140.0       140.0       140.0       140.0       140.0    
        140.0       140.0       140.0       140.0       140.0       140.0       140.0       140.0       140.0       140.0    
        140.0       140.0       140.0       140.0       140.0       140.0       140.0       140.0       140.0       140.0    
        140.0       140.0       140.0       140.0       140.0       140.0       140.0       140.0       140.0       140.0    
        140.0       140.0       140.0       140.0       140.0       140.0       140.0       140.0       140.0       140.0    
        140.0       140.0       140.0       140.0       140.0       140.0       140.0       140.0       140.0       140.0    
        140.0       140.0       140.0       140.0       140.0       140.0       140.0       140.0       140.0       140.0    
        140.0       140.0       140.0       140.0       140.0       140.0       140.0       140.0       140.0       140.0    
        140.0       140.0       140.0       140.0       140.0       140.0       140.0       140.0       140.0       140.0    
        140.0       140.0       140.0       140.0       140.0       140.0       140.0       140.0       140.0       140.0    
        140.0       140.0       140.0       140.0       140.0       140.0       140.0       140.0       140.0       140.0    
        140.0       140.0       140.0       140.0       140.0       140.0       140.0       140.0       140.0       140.0    
        140.0       140.0       140.0       140.0       140.0       140.0       140.0       140.0       140.0       140.0    
        140.0       140.0       140.0       140.0       140.0       140.0       140.0       140.0       140.0       140.0    
        140.0       140.0       140.0       140.0       140.0       140.0       140.0       140.0       140.0       140.0    
        140.0       140.0       140.0       140.0       140.0       140.0       140.0       140.0       140.0       140.0    
        140.0       140.0       140.0       140.0       140.0       140.0       140.0       140.0       140.0       140.0    
        140.0       140.0       140.0       140.0       140.0       140.0       140.0       140.0       140.0       140.0    
        140.0       140.0       140.0       140.0       140.0       140.0       140.0       140.0       140.0       140.0    
        140.0    
   7    140.0       140.0       140.0       140.0       140.0       140.0       140.0       140.0       140.0       140.0    
        140.0       140.0       140.0       140.0       140.0       140.0       140.0       140.0       140.0       140.0    
        140.0       140.0       140.0       140.0       140.0       140.0       140.0       140.0       140.0       140.0    
        140.0       140.0       140.0       140.0       140.0       140.0       140.0       140.0       140.0       140.0    
        140.0       140.0       140.0       140.0       140.0       140.0       140.0       140.0       140.0       140.0    
        140.0       140.0       140.0       140.0       140.0       140.0       140.0       140.0       140.0       140.0    
        140.0       140.0       140.0       140.0       140.0       140.0       140.0       140.0       140.0       140.0    
        140.0       140.0       140.0       140.0       140.0       140.0       140.0       140.0       140.0       140.0    
        140.0       140.0       140.0       140.0       140.0       140.0       140.0       140.0       140.0       140.0    
        140.0       140.0       140.0       140.0       140.0       140.0       140.0       140.0       140.0       140.0    
        140.0       140.0       140.0       140.0       140.0       140.0       140.0       140.0       140.0       140.0    
        140.0       140.0       140.0       140.0       140.0       140.0       140.0       140.0       140.0       140.0    
        140.0       140.0       140.0       140.0       140.0       140.0       140.0       140.0       140.0       140.0    
        140.0       140.0       140.0       140.0       140.0       140.0       140.0       140.0       140.0       140.0    
        140.0       140.0       140.0       140.0       140.0       140.0       140.0       140.0       140.0       140.0    
        140.0       140.0       140.0       140.0       140.0       140.0       140.0       140.0       140.0       140.0    
        140.0       140.0       140.0       140.0       140.0       140.0       140.0       140.0       140.0       140.0    
        140.0       140.0       140.0       140.0       140.0       140.0       140.0       140.0       140.0       140.0    
        140.0       140.0       140.0       140.0       140.0       140.0       140.0       140.0       140.0       140.0    
        140.0       140.0       140.0       140.0       140.0       140.0       140.0       140.0       140.0       140.0    
        140.0    
   8    140.0       140.0       140.0       140.0       140.0       140.0       140.0       140.0       140.0       140.0    
        140.0       140.0       140.0       140.0       140.0       140.0       140.0       140.0       140.0       140.0    
        140.0       140.0       140.0       140.0       140.0       140.0       140.0       140.0       140.0       140.0    
        140.0       140.0       140.0       140.0       140.0       140.0       140.0       140.0       140.0       140.0    
        140.0       140.0       140.0       140.0       140.0       140.0       140.0       140.0       140.0       140.0    
        140.0       140.0       140.0       140.0       140.0       140.0       140.0       140.0       140.0       140.0    
        140.0       140.0       140.0       140.0       140.0       140.0       140.0       140.0       140.0       140.0    
        140.0       140.0       140.0       140.0       140.0       140.0       140.0       140.0       140.0       140.0    
        140.0       140.0       140.0       140.0       140.0       140.0       140.0       140.0       140.0       140.0    
        140.0       140.0       140.0       140.0       140.0       140.0       140.0       140.0       140.0       140.0    
        140.0       140.0       140.0       140.0       140.0       140.0       140.0       140.0       140.0       140.0    
        140.0       140.0       140.0       140.0       140.0       140.0       140.0       140.0       140.0       140.0    
        140.0       140.0       140.0       140.0       140.0       140.0       140.0       140.0       140.0       140.0    
        140.0       140.0       140.0       140.0       140.0       140.0       140.0       140.0       140.0       140.0    
        140.0       140.0       140.0       140.0       140.0       140.0       140.0       140.0       140.0       140.0    
        140.0       140.0       140.0       140.0       140.0       140.0       140.0       140.0       140.0       140.0    
        140.0       140.0       140.0       140.0       140.0       140.0       140.0       140.0       140.0       140.0    
        140.0       140.0       140.0       140.0       140.0       140.0       140.0       140.0       140.0       140.0    
        140.0       140.0       140.0       140.0       140.0       140.0       140.0       140.0       140.0       140.0    
        140.0       140.0       140.0       140.0       140.0       140.0       140.0       140.0       140.0       140.0    
        140.0    
   9    140.0       140.0       140.0       140.0       140.0       140.0       140.0       140.0       140.0       140.0    
        140.0       140.0       140.0       140.0       140.0       140.0       140.0       140.0       140.0       140.0    
        140.0       140.0       140.0       140.0       140.0       140.0       140.0       140.0       140.0       140.0    
        140.0       140.0       140.0       140.0       140.0       140.0       140.0       140.0       140.0       140.0    
        140.0       140.0       140.0       140.0       140.0       140.0       140.0       140.0       140.0       140.0    
        140.0       140.0       140.0       140.0       140.0       140.0       140.0       140.0       140.0       140.0    
        140.0       140.0       140.0       140.0       140.0       140.0       140.0       140.0       140.0       140.0    
        140.0       140.0       140.0       140.0       140.0       140.0       140.0       140.0       140.0       140.0    
        140.0       140.0       140.0       140.0       140.0       140.0       140.0       140.0       140.0       140.0    
        140.0       140.0       140.0       140.0       140.0       140.0       140.0       140.0       140.0       140.0    
        140.0       140.0       140.0       140.0       140.0       140.0       140.0       140.0       140.0       140.0    
        140.0       140.0       140.0       140.0       140.0       140.0       140.0       140.0       140.0       140.0    
        140.0       140.0       140.0       140.0       140.0       140.0       140.0       140.0       140.0       140.0    
        140.0       140.0       140.0       140.0       140.0       140.0       140.0       140.0       140.0       140.0    
        140.0       140.0       140.0       140.0       140.0       140.0       140.0       140.0       140.0       140.0    
        140.0       140.0       140.0       140.0       140.0       140.0       140.0       140.0       140.0       140.0    
        140.0       140.0       140.0       140.0       140.0       140.0       140.0       140.0       140.0       140.0    
        140.0       140.0       140.0       140.0       140.0       140.0       140.0       140.0       140.0       140.0    
        140.0       140.0       140.0       140.0       140.0       140.0       140.0       140.0       140.0       140.0    
        140.0       140.0       140.0       140.0       140.0       140.0       140.0       140.0       140.0       140.0    
        140.0    
  10    140.0       140.0       140.0       140.0       140.0       140.0       140.0       140.0       140.0       140.0    
        140.0       140.0       140.0       140.0       140.0       140.0       140.0       140.0       140.0       140.0    
        140.0       140.0       140.0       140.0       140.0       140.0       140.0       140.0       140.0       140.0    
        140.0       140.0       140.0       140.0       140.0       140.0       140.0       140.0       140.0       140.0    
        140.0       140.0       140.0       140.0       140.0       140.0       140.0       140.0       140.0       140.0    
        140.0       140.0       140.0       140.0       140.0       140.0       140.0       140.0       140.0       140.0    
        140.0       140.0       140.0       140.0       140.0       140.0       140.0       140.0       140.0       140.0    
        140.0       140.0       140.0       140.0       140.0       140.0       140.0       140.0       140.0       140.0    
        140.0       140.0       140.0       140.0       140.0       140.0       140.0       140.0       140.0       140.0    
        140.0       140.0       140.0       140.0       140.0       140.0       140.0       140.0       140.0       140.0    
        140.0       140.0       140.0       140.0       140.0       140.0       140.0       140.0       140.0       140.0    
        140.0       140.0       140.0       140.0       140.0       140.0       140.0       140.0       140.0       140.0    
        140.0       140.0       140.0       140.0       140.0       140.0       140.0       140.0       140.0       140.0    
        140.0       140.0       140.0       140.0       140.0       140.0       140.0       140.0       140.0       140.0    
        140.0       140.0       140.0       140.0       140.0       140.0       140.0       140.0       140.0       140.0    
        140.0       140.0       140.0       140.0       140.0       140.0       140.0       140.0       140.0       140.0    
        140.0       140.0       140.0       140.0       140.0       140.0       140.0       140.0       140.0       140.0    
        140.0       140.0       140.0       140.0       140.0       140.0       140.0       140.0       140.0       140.0    
        140.0       140.0       140.0       140.0       140.0       140.0       140.0       140.0       140.0       140.0    
        140.0       140.0       140.0       140.0       140.0       140.0       140.0       140.0       140.0       140.0    
        140.0    
  11    140.0       140.0       140.0       140.0       140.0       140.0       140.0       140.0       140.0       140.0    
        140.0       140.0       140.0       140.0       140.0       140.0       140.0       140.0       140.0       140.0    
        140.0       140.0       140.0       140.0       140.0       140.0       140.0       140.0       140.0       140.0    
        140.0       140.0       140.0       140.0       140.0       140.0       140.0       140.0       140.0       140.0    
        140.0       140.0       140.0       140.0       140.0       140.0       140.0       140.0       140.0       140.0    
        140.0       140.0       140.0       140.0       140.0       140.0       140.0       140.0       140.0       140.0    
        140.0       140.0       140.0       140.0       140.0       140.0       140.0       140.0       140.0       140.0    
        140.0       140.0       140.0       140.0       140.0       140.0       140.0       140.0       140.0       140.0    
        140.0       140.0       140.0       140.0       140.0       140.0       140.0       140.0       140.0       140.0    
        140.0       140.0       140.0       140.0       140.0       140.0       140.0       140.0       140.0       140.0    
        140.0       140.0       140.0       140.0       140.0       140.0       140.0       140.0       140.0       140.0    
        140.0       140.0       140.0       140.0       140.0       140.0       140.0       140.0       140.0       140.0    
        140.0       140.0       140.0       140.0       140.0       140.0       140.0       140.0       140.0       140.0    
        140.0       140.0       140.0       140.0       140.0       140.0       140.0       140.0       140.0       140.0    
        140.0       140.0       140.0       140.0       140.0       140.0       140.0       140.0       140.0       140.0    
        140.0       140.0       140.0       140.0       140.0       140.0       140.0       140.0       140.0       140.0    
        140.0       140.0       140.0       140.0       140.0       140.0       140.0       140.0       140.0       140.0    
        140.0       140.0       140.0       140.0       140.0       140.0       140.0       140.0       140.0       140.0    
        140.0       140.0       140.0       140.0       140.0       140.0       140.0       140.0       140.0       140.0    
        140.0       140.0       140.0       140.0       140.0       140.0       140.0       140.0       140.0       140.0    
        140.0    
  12    140.0       140.0       140.0       140.0       140.0       140.0       140.0       140.0       140.0       140.0    
        140.0       140.0       140.0       140.0       140.0       140.0       140.0       140.0       140.0       140.0    
        140.0       140.0       140.0       140.0       140.0       140.0       140.0       140.0       140.0       140.0    
        140.0       140.0       140.0       140.0       140.0       140.0       140.0       140.0       140.0       140.0    
        140.0       140.0       140.0       140.0       140.0       140.0       140.0       140.0       140.0       140.0    
        140.0       140.0       140.0       140.0       140.0       140.0       140.0       140.0       140.0       140.0    
        140.0       140.0       140.0       140.0       140.0       140.0       140.0       140.0       140.0       140.0    
        140.0       140.0       140.0       140.0       140.0       140.0       140.0       140.0       140.0       140.0    
        140.0       140.0       140.0       140.0       140.0       140.0       140.0       140.0       140.0       140.0    
        140.0       140.0       140.0       140.0       140.0       140.0       140.0       140.0       140.0       140.0    
        140.0       140.0       140.0       140.0       140.0       140.0       140.0       140.0       140.0       140.0    
        140.0       140.0       140.0       140.0       140.0       140.0       140.0       140.0       140.0       140.0    
        140.0       140.0       140.0       140.0       140.0       140.0       140.0       140.0       140.0       140.0    
        140.0       140.0       140.0       140.0       140.0       140.0       140.0       140.0       140.0       140.0    
        140.0       140.0       140.0       140.0       140.0       140.0       140.0       140.0       140.0       140.0    
        140.0       140.0       140.0       140.0       140.0       140.0       140.0       140.0       140.0       140.0    
        140.0       140.0       140.0       140.0       140.0       140.0       140.0       140.0       140.0       140.0    
        140.0       140.0       140.0       140.0       140.0       140.0       140.0       140.0       140.0       140.0    
        140.0       140.0       140.0       140.0       140.0       140.0       140.0       140.0       140.0       140.0    
        140.0       140.0       140.0       140.0       140.0       140.0       140.0       140.0       140.0       140.0    
        140.0    
  13    140.0       140.0       140.0       140.0       140.0       140.0       140.0       140.0       140.0       140.0    
        140.0       140.0       140.0       140.0       140.0       140.0       140.0       140.0       140.0       140.0    
        140.0       140.0       140.0       140.0       140.0       140.0       140.0       140.0       140.0       140.0    
        140.0       140.0       140.0       140.0       140.0       140.0       140.0       140.0       140.0       140.0    
        140.0       140.0       140.0       140.0       140.0       140.0       140.0       140.0       140.0       140.0    
        140.0       140.0       140.0       140.0       140.0       140.0       140.0       140.0       140.0       140.0    
        140.0       140.0       140.0       140.0       140.0       140.0       140.0       140.0       140.0       140.0    
        140.0       140.0       140.0       140.0       140.0       140.0       140.0       140.0       140.0       140.0    
        140.0       140.0       140.0       140.0       140.0       140.0       140.0       140.0       140.0       140.0    
        140.0       140.0       140.0       140.0       140.0       140.0       140.0       140.0       140.0       140.0    
        140.0       140.0       140.0       140.0       140.0       140.0       140.0       140.0       140.0       140.0    
        140.0       140.0       140.0       140.0       140.0       140.0       140.0       140.0       140.0       140.0    
        140.0       140.0       140.0       140.0       140.0       140.0       140.0       140.0       140.0       140.0    
        140.0       140.0       140.0       140.0       140.0       140.0       140.0       140.0       140.0       140.0    
        140.0       140.0       140.0       140.0       140.0       140.0       140.0       140.0       140.0       140.0    
        140.0       140.0       140.0       140.0       140.0       140.0       140.0       140.0       140.0       140.0    
        140.0       140.0       140.0       140.0       140.0       140.0       140.0       140.0       140.0       140.0    
        140.0       140.0       140.0       140.0       140.0       140.0       140.0       140.0       140.0       140.0    
        140.0       140.0       140.0       140.0       140.0       140.0       140.0       140.0       140.0       140.0    
        140.0       140.0       140.0       140.0       140.0       140.0       140.0       140.0       140.0       140.0    
        140.0    
  14    140.0       140.0       140.0       140.0       140.0       140.0       140.0       140.0       140.0       140.0    
        140.0       140.0       140.0       140.0       140.0       140.0       140.0       140.0       140.0       140.0    
        140.0       140.0       140.0       140.0       140.0       140.0       140.0       140.0       140.0       140.0    
        140.0       140.0       140.0       140.0       140.0       140.0       140.0       140.0       140.0       140.0    
        140.0       140.0       140.0       140.0       140.0       140.0       140.0       140.0       140.0       140.0    
        140.0       140.0       140.0       140.0       140.0       140.0       140.0       140.0       140.0       140.0    
        140.0       140.0       140.0       140.0       140.0       140.0       140.0       140.0       140.0       140.0    
        140.0       140.0       140.0       140.0       140.0       140.0       140.0       140.0       140.0       140.0    
        140.0       140.0       140.0       140.0       140.0       140.0       140.0       140.0       140.0       140.0    
        140.0       140.0       140.0       140.0       140.0       140.0       140.0       140.0       140.0       140.0    
        140.0       140.0       140.0       140.0       140.0       140.0       140.0       140.0       140.0       140.0    
        140.0       140.0       140.0       140.0       140.0       140.0       140.0       140.0       140.0       140.0    
        140.0       140.0       140.0       140.0       140.0       140.0       140.0       140.0       140.0       140.0    
        140.0       140.0       140.0       140.0       140.0       140.0       140.0       140.0       140.0       140.0    
        140.0       140.0       140.0       140.0       140.0       140.0       140.0       140.0       140.0       140.0    
        140.0       140.0       140.0       140.0       140.0       140.0       140.0       140.0       140.0       140.0    
        140.0       140.0       140.0       140.0       140.0       140.0       140.0       140.0       140.0       140.0    
        140.0       140.0       140.0       140.0       140.0       140.0       140.0       140.0       140.0       140.0    
        140.0       140.0       140.0       140.0       140.0       140.0       140.0       140.0       140.0       140.0    
        140.0       140.0       140.0       140.0       140.0       140.0       140.0       140.0       140.0       140.0    
        140.0    
  15    140.0       140.0       140.0       140.0       140.0       140.0       140.0       140.0       140.0       140.0    
        140.0       140.0       140.0       140.0       140.0       140.0       140.0       140.0       140.0       140.0    
        140.0       140.0       140.0       140.0       140.0       140.0       140.0       140.0       140.0       140.0    
        140.0       140.0       140.0       140.0       140.0       140.0       140.0       140.0       140.0       140.0    
        140.0       140.0       140.0       140.0       140.0       140.0       140.0       140.0       140.0       140.0    
        140.0       140.0       140.0       140.0       140.0       140.0       140.0       140.0       140.0       140.0    
        140.0       140.0       140.0       140.0       140.0       140.0       140.0       140.0       140.0       140.0    
        140.0       140.0       140.0       140.0       140.0       140.0       140.0       140.0       140.0       140.0    
        140.0       140.0       140.0       140.0       140.0       140.0       140.0       140.0       140.0       140.0    
        140.0       140.0       140.0       140.0       140.0       140.0       140.0       140.0       140.0       140.0    
        140.0       140.0       140.0       140.0       140.0       140.0       140.0       140.0       140.0       140.0    
        140.0       140.0       140.0       140.0       140.0       140.0       140.0       140.0       140.0       140.0    
        140.0       140.0       140.0       140.0       140.0       140.0       140.0       140.0       140.0       140.0    
        140.0       140.0       140.0       140.0       140.0       140.0       140.0       140.0       140.0       140.0    
        140.0       140.0       140.0       140.0       140.0       140.0       140.0       140.0       140.0       140.0    
        140.0       140.0       140.0       140.0       140.0       140.0       140.0       140.0       140.0       140.0    
        140.0       140.0       140.0       140.0       140.0       140.0       140.0       140.0       140.0       140.0    
        140.0       140.0       140.0       140.0       140.0       140.0       140.0       140.0       140.0       140.0    
        140.0       140.0       140.0       140.0       140.0       140.0       140.0       140.0       140.0       140.0    
        140.0       140.0       140.0       140.0       140.0       140.0       140.0       140.0       140.0       140.0    
        140.0    
  16    140.0       140.0       140.0       140.0       140.0       140.0       140.0       140.0       140.0       140.0    
        140.0       140.0       140.0       140.0       140.0       140.0       140.0       140.0       140.0       140.0    
        140.0       140.0       140.0       140.0       140.0       140.0       140.0       140.0       140.0       140.0    
        140.0       140.0       140.0       140.0       140.0       140.0       140.0       140.0       140.0       140.0    
        140.0       140.0       140.0       140.0       140.0       140.0       140.0       140.0       140.0       140.0    
        140.0       140.0       140.0       140.0       140.0       140.0       140.0       140.0       140.0       140.0    
        140.0       140.0       140.0       140.0       140.0       140.0       140.0       140.0       140.0       140.0    
        140.0       140.0       140.0       140.0       140.0       140.0       140.0       140.0       140.0       140.0    
        140.0       140.0       140.0       140.0       140.0       140.0       140.0       140.0       140.0       140.0    
        140.0       140.0       140.0       140.0       140.0       140.0       140.0       140.0       140.0       140.0    
        140.0       140.0       140.0       140.0       140.0       140.0       140.0       140.0       140.0       140.0    
        140.0       140.0       140.0       140.0       140.0       140.0       140.0       140.0       140.0       140.0    
        140.0       140.0       140.0       140.0       140.0       140.0       140.0       140.0       140.0       140.0    
        140.0       140.0       140.0       140.0       140.0       140.0       140.0       140.0       140.0       140.0    
        140.0       140.0       140.0       140.0       140.0       140.0       140.0       140.0       140.0       140.0    
        140.0       140.0       140.0       140.0       140.0       140.0       140.0       140.0       140.0       140.0    
        140.0       140.0       140.0       140.0       140.0       140.0       140.0       140.0       140.0       140.0    
        140.0       140.0       140.0       140.0       140.0       140.0       140.0       140.0       140.0       140.0    
        140.0       140.0       140.0       140.0       140.0       140.0       140.0       140.0       140.0       140.0    
        140.0       140.0       140.0       140.0       140.0       140.0       140.0       140.0       140.0       140.0    
        140.0    
  17    140.0       140.0       140.0       140.0       140.0       140.0       140.0       140.0       140.0       140.0    
        140.0       140.0       140.0       140.0       140.0       140.0       140.0       140.0       140.0       140.0    
        140.0       140.0       140.0       140.0       140.0       140.0       140.0       140.0       140.0       140.0    
        140.0       140.0       140.0       140.0       140.0       140.0       140.0       140.0       140.0       140.0    
        140.0       140.0       140.0       140.0       140.0       140.0       140.0       140.0       140.0       140.0    
        140.0       140.0       140.0       140.0       140.0       140.0       140.0       140.0       140.0       140.0    
        140.0       140.0       140.0       140.0       140.0       140.0       140.0       140.0       140.0       140.0    
        140.0       140.0       140.0       140.0       140.0       140.0       140.0       140.0       140.0       140.0    
        140.0       140.0       140.0       140.0       140.0       140.0       140.0       140.0       140.0       140.0    
        140.0       140.0       140.0       140.0       140.0       140.0       140.0       140.0       140.0       140.0    
        140.0       140.0       140.0       140.0       140.0       140.0       140.0       140.0       140.0       140.0    
        140.0       140.0       140.0       140.0       140.0       140.0       140.0       140.0       140.0       140.0    
        140.0       140.0       140.0       140.0       140.0       140.0       140.0       140.0       140.0       140.0    
        140.0       140.0       140.0       140.0       140.0       140.0       140.0       140.0       140.0       140.0    
        140.0       140.0       140.0       140.0       140.0       140.0       140.0       140.0       140.0       140.0    
        140.0       140.0       140.0       140.0       140.0       140.0       140.0       140.0       140.0       140.0    
        140.0       140.0       140.0       140.0       140.0       140.0       140.0       140.0       140.0       140.0    
        140.0       140.0       140.0       140.0       140.0       140.0       140.0       140.0       140.0       140.0    
        140.0       140.0       140.0       140.0       140.0       140.0       140.0       140.0       140.0       140.0    
        140.0       140.0       140.0       140.0       140.0       140.0       140.0       140.0       140.0       140.0    
        140.0    
  18    140.0       140.0       140.0       140.0       140.0       140.0       140.0       140.0       140.0       140.0    
        140.0       140.0       140.0       140.0       140.0       140.0       140.0       140.0       140.0       140.0    
        140.0       140.0       140.0       140.0       140.0       140.0       140.0       140.0       140.0       140.0    
        140.0       140.0       140.0       140.0       140.0       140.0       140.0       140.0       140.0       140.0    
        140.0       140.0       140.0       140.0       140.0       140.0       140.0       140.0       140.0       140.0    
        140.0       140.0       140.0       140.0       140.0       140.0       140.0       140.0       140.0       140.0    
        140.0       140.0       140.0       140.0       140.0       140.0       140.0       140.0       140.0       140.0    
        140.0       140.0       140.0       140.0       140.0       140.0       140.0       140.0       140.0       140.0    
        140.0       140.0       140.0       140.0       140.0       140.0       140.0       140.0       140.0       140.0    
        140.0       140.0       140.0       140.0       140.0       140.0       140.0       140.0       140.0       140.0    
        140.0       140.0       140.0       140.0       140.0       140.0       140.0       140.0       140.0       140.0    
        140.0       140.0       140.0       140.0       140.0       140.0       140.0       140.0       140.0       140.0    
        140.0       140.0       140.0       140.0       140.0       140.0       140.0       140.0       140.0       140.0    
        140.0       140.0       140.0       140.0       140.0       140.0       140.0       140.0       140.0       140.0    
        140.0       140.0       140.0       140.0       140.0       140.0       140.0       140.0       140.0       140.0    
        140.0       140.0       140.0       140.0       140.0       140.0       140.0       140.0       140.0       140.0    
        140.0       140.0       140.0       140.0       140.0       140.0       140.0       140.0       140.0       140.0    
        140.0       140.0       140.0       140.0       140.0       140.0       140.0       140.0       140.0       140.0    
        140.0       140.0       140.0       140.0       140.0       140.0       140.0       140.0       140.0       140.0    
        140.0       140.0       140.0       140.0       140.0       140.0       140.0       140.0       140.0       140.0    
        140.0    
  19    140.0       140.0       140.0       140.0       140.0       140.0       140.0       140.0       140.0       140.0    
        140.0       140.0       140.0       140.0       140.0       140.0       140.0       140.0       140.0       140.0    
        140.0       140.0       140.0       140.0       140.0       140.0       140.0       140.0       140.0       140.0    
        140.0       140.0       140.0       140.0       140.0       140.0       140.0       140.0       140.0       140.0    
        140.0       140.0       140.0       140.0       140.0       140.0       140.0       140.0       140.0       140.0    
        140.0       140.0       140.0       140.0       140.0       140.0       140.0       140.0       140.0       140.0    
        140.0       140.0       140.0       140.0       140.0       140.0       140.0       140.0       140.0       140.0    
        140.0       140.0       140.0       140.0       140.0       140.0       140.0       140.0       140.0       140.0    
        140.0       140.0       140.0       140.0       140.0       140.0       140.0       140.0       140.0       140.0    
        140.0       140.0       140.0       140.0       140.0       140.0       140.0       140.0       140.0       140.0    
        140.0       140.0       140.0       140.0       140.0       140.0       140.0       140.0       140.0       140.0    
        140.0       140.0       140.0       140.0       140.0       140.0       140.0       140.0       140.0       140.0    
        140.0       140.0       140.0       140.0       140.0       140.0       140.0       140.0       140.0       140.0    
        140.0       140.0       140.0       140.0       140.0       140.0       140.0       140.0       140.0       140.0    
        140.0       140.0       140.0       140.0       140.0       140.0       140.0       140.0       140.0       140.0    
        140.0       140.0       140.0       140.0       140.0       140.0       140.0       140.0       140.0       140.0    
        140.0       140.0       140.0       140.0       140.0       140.0       140.0       140.0       140.0       140.0    
        140.0       140.0       140.0       140.0       140.0       140.0       140.0       140.0       140.0       140.0    
        140.0       140.0       140.0       140.0       140.0       140.0       140.0       140.0       140.0       140.0    
        140.0       140.0       140.0       140.0       140.0       140.0       140.0       140.0       140.0       140.0    
        140.0    
  20    140.0       140.0       140.0       140.0       140.0       140.0       140.0       140.0       140.0       140.0    
        140.0       140.0       140.0       140.0       140.0       140.0       140.0       140.0       140.0       140.0    
        140.0       140.0       140.0       140.0       140.0       140.0       140.0       140.0       140.0       140.0    
        140.0       140.0       140.0       140.0       140.0       140.0       140.0       140.0       140.0       140.0    
        140.0       140.0       140.0       140.0       140.0       140.0       140.0       140.0       140.0       140.0    
        140.0       140.0       140.0       140.0       140.0       140.0       140.0       140.0       140.0       140.0    
        140.0       140.0       140.0       140.0       140.0       140.0       140.0       140.0       140.0       140.0    
        140.0       140.0       140.0       140.0       140.0       140.0       140.0       140.0       140.0       140.0    
        140.0       140.0       140.0       140.0       140.0       140.0       140.0       140.0       140.0       140.0    
        140.0       140.0       140.0       140.0       140.0       140.0       140.0       140.0       140.0       140.0    
        140.0       140.0       140.0       140.0       140.0       140.0       140.0       140.0       140.0       140.0    
        140.0       140.0       140.0       140.0       140.0       140.0       140.0       140.0       140.0       140.0    
        140.0       140.0       140.0       140.0       140.0       140.0       140.0       140.0       140.0       140.0    
        140.0       140.0       140.0       140.0       140.0       140.0       140.0       140.0       140.0       140.0    
        140.0       140.0       140.0       140.0       140.0       140.0       140.0       140.0       140.0       140.0    
        140.0       140.0       140.0       140.0       140.0       140.0       140.0       140.0       140.0       140.0    
        140.0       140.0       140.0       140.0       140.0       140.0       140.0       140.0       140.0       140.0    
        140.0       140.0       140.0       140.0       140.0       140.0       140.0       140.0       140.0       140.0    
        140.0       140.0       140.0       140.0       140.0       140.0       140.0       140.0       140.0       140.0    
        140.0       140.0       140.0       140.0       140.0       140.0       140.0       140.0       140.0       140.0    
        140.0    
  21    140.0       140.0       140.0       140.0       140.0       140.0       140.0       140.0       140.0       140.0    
        140.0       140.0       140.0       140.0       140.0       140.0       140.0       140.0       140.0       140.0    
        140.0       140.0       140.0       140.0       140.0       140.0       140.0       140.0       140.0       140.0    
        140.0       140.0       140.0       140.0       140.0       140.0       140.0       140.0       140.0       140.0    
        140.0       140.0       140.0       140.0       140.0       140.0       140.0       140.0       140.0       140.0    
        140.0       140.0       140.0       140.0       140.0       140.0       140.0       140.0       140.0       140.0    
        140.0       140.0       140.0       140.0       140.0       140.0       140.0       140.0       140.0       140.0    
        140.0       140.0       140.0       140.0       140.0       140.0       140.0       140.0       140.0       140.0    
        140.0       140.0       140.0       140.0       140.0       140.0       140.0       140.0       140.0       140.0    
        140.0       140.0       140.0       140.0       140.0       140.0       140.0       140.0       140.0       140.0    
        140.0       140.0       140.0       140.0       140.0       140.0       140.0       140.0       140.0       140.0    
        140.0       140.0       140.0       140.0       140.0       140.0       140.0       140.0       140.0       140.0    
        140.0       140.0       140.0       140.0       140.0       140.0       140.0       140.0       140.0       140.0    
        140.0       140.0       140.0       140.0       140.0       140.0       140.0       140.0       140.0       140.0    
        140.0       140.0       140.0       140.0       140.0       140.0       140.0       140.0       140.0       140.0    
        140.0       140.0       140.0       140.0       140.0       140.0       140.0       140.0       140.0       140.0    
        140.0       140.0       140.0       140.0       140.0       140.0       140.0       140.0       140.0       140.0    
        140.0       140.0       140.0       140.0       140.0       140.0       140.0       140.0       140.0       140.0    
        140.0       140.0       140.0       140.0       140.0       140.0       140.0       140.0       140.0       140.0    
        140.0       140.0       140.0       140.0       140.0       140.0       140.0       140.0       140.0       140.0    
        140.0    
  22    140.0       140.0       140.0       140.0       140.0       140.0       140.0       140.0       140.0       140.0    
        140.0       140.0       140.0       140.0       140.0       140.0       140.0       140.0       140.0       140.0    
        140.0       140.0       140.0       140.0       140.0       140.0       140.0       140.0       140.0       140.0    
        140.0       140.0       140.0       140.0       140.0       140.0       140.0       140.0       140.0       140.0    
        140.0       140.0       140.0       140.0       140.0       140.0       140.0       140.0       140.0       140.0    
        140.0       140.0       140.0       140.0       140.0       140.0       140.0       140.0       140.0       140.0    
        140.0       140.0       140.0       140.0       140.0       140.0       140.0       140.0       140.0       140.0    
        140.0       140.0       140.0       140.0       140.0       140.0       140.0       140.0       140.0       140.0    
        140.0       140.0       140.0       140.0       140.0       140.0       140.0       140.0       140.0       140.0    
        140.0       140.0       140.0       140.0       140.0       140.0       140.0       140.0       140.0       140.0    
        140.0       140.0       140.0       140.0       140.0       140.0       140.0       140.0       140.0       140.0    
        140.0       140.0       140.0       140.0       140.0       140.0       140.0       140.0       140.0       140.0    
        140.0       140.0       140.0       140.0       140.0       140.0       140.0       140.0       140.0       140.0    
        140.0       140.0       140.0       140.0       140.0       140.0       140.0       140.0       140.0       140.0    
        140.0       140.0       140.0       140.0       140.0       140.0       140.0       140.0       140.0       140.0    
        140.0       140.0       140.0       140.0       140.0       140.0       140.0       140.0       140.0       140.0    
        140.0       140.0       140.0       140.0       140.0       140.0       140.0       140.0       140.0       140.0    
        140.0       140.0       140.0       140.0       140.0       140.0       140.0       140.0       140.0       140.0    
        140.0       140.0       140.0       140.0       140.0       140.0       140.0       140.0       140.0       140.0    
        140.0       140.0       140.0       140.0       140.0       140.0       140.0       140.0       140.0       140.0    
        140.0    
  23    140.0       140.0       140.0       140.0       140.0       140.0       140.0       140.0       140.0       140.0    
        140.0       140.0       140.0       140.0       140.0       140.0       140.0       140.0       140.0       140.0    
        140.0       140.0       140.0       140.0       140.0       140.0       140.0       140.0       140.0       140.0    
        140.0       140.0       140.0       140.0       140.0       140.0       140.0       140.0       140.0       140.0    
        140.0       140.0       140.0       140.0       140.0       140.0       140.0       140.0       140.0       140.0    
        140.0       140.0       140.0       140.0       140.0       140.0       140.0       140.0       140.0       140.0    
        140.0       140.0       140.0       140.0       140.0       140.0       140.0       140.0       140.0       140.0    
        140.0       140.0       140.0       140.0       140.0       140.0       140.0       140.0       140.0       140.0    
        140.0       140.0       140.0       140.0       140.0       140.0       140.0       140.0       140.0       140.0    
        140.0       140.0       140.0       140.0       140.0       140.0       140.0       140.0       140.0       140.0    
        140.0       140.0       140.0       140.0       140.0       140.0       140.0       140.0       140.0       140.0    
        140.0       140.0       140.0       140.0       140.0       140.0       140.0       140.0       140.0       140.0    
        140.0       140.0       140.0       140.0       140.0       140.0       140.0       140.0       140.0       140.0    
        140.0       140.0       140.0       140.0       140.0       140.0       140.0       140.0       140.0       140.0    
        140.0       140.0       140.0       140.0       140.0       140.0       140.0       140.0       140.0       140.0    
        140.0       140.0       140.0       140.0       140.0       140.0       140.0       140.0       140.0       140.0    
        140.0       140.0       140.0       140.0       140.0       140.0       140.0       140.0       140.0       140.0    
        140.0       140.0       140.0       140.0       140.0       140.0       140.0       140.0       140.0       140.0    
        140.0       140.0       140.0       140.0       140.0       140.0       140.0       140.0       140.0       140.0    
        140.0       140.0       140.0       140.0       140.0       140.0       140.0       140.0       140.0       140.0    
        140.0    
  24    140.0       140.0       140.0       140.0       140.0       140.0       140.0       140.0       140.0       140.0    
        140.0       140.0       140.0       140.0       140.0       140.0       140.0       140.0       140.0       140.0    
        140.0       140.0       140.0       140.0       140.0       140.0       140.0       140.0       140.0       140.0    
        140.0       140.0       140.0       140.0       140.0       140.0       140.0       140.0       140.0       140.0    
        140.0       140.0       140.0       140.0       140.0       140.0       140.0       140.0       140.0       140.0    
        140.0       140.0       140.0       140.0       140.0       140.0       140.0       140.0       140.0       140.0    
        140.0       140.0       140.0       140.0       140.0       140.0       140.0       140.0       140.0       140.0    
        140.0       140.0       140.0       140.0       140.0       140.0       140.0       140.0       140.0       140.0    
        140.0       140.0       140.0       140.0       140.0       140.0       140.0       140.0       140.0       140.0    
        140.0       140.0       140.0       140.0       140.0       140.0       140.0       140.0       140.0       140.0    
        140.0       140.0       140.0       140.0       140.0       140.0       140.0       140.0       140.0       140.0    
        140.0       140.0       140.0       140.0       140.0       140.0       140.0       140.0       140.0       140.0    
        140.0       140.0       140.0       140.0       140.0       140.0       140.0       140.0       140.0       140.0    
        140.0       140.0       140.0       140.0       140.0       140.0       140.0       140.0       140.0       140.0    
        140.0       140.0       140.0       140.0       140.0       140.0       140.0       140.0       140.0       140.0    
        140.0       140.0       140.0       140.0       140.0       140.0       140.0       140.0       140.0       140.0    
        140.0       140.0       140.0       140.0       140.0       140.0       140.0       140.0       140.0       140.0    
        140.0       140.0       140.0       140.0       140.0       140.0       140.0       140.0       140.0       140.0    
        140.0       140.0       140.0       140.0       140.0       140.0       140.0       140.0       140.0       140.0    
        140.0       140.0       140.0       140.0       140.0       140.0       140.0       140.0       140.0       140.0    
        140.0    
  25    140.0       140.0       140.0       140.0       140.0       140.0       140.0       140.0       140.0       140.0    
        140.0       140.0       140.0       140.0       140.0       140.0       140.0       140.0       140.0       140.0    
        140.0       140.0       140.0       140.0       140.0       140.0       140.0       140.0       140.0       140.0    
        140.0       140.0       140.0       140.0       140.0       140.0       140.0       140.0       140.0       140.0    
        140.0       140.0       140.0       140.0       140.0       140.0       140.0       140.0       140.0       140.0    
        140.0       140.0       140.0       140.0       140.0       140.0       140.0       140.0       140.0       140.0    
        140.0       140.0       140.0       140.0       140.0       140.0       140.0       140.0       140.0       140.0    
        140.0       140.0       140.0       140.0       140.0       140.0       140.0       140.0       140.0       140.0    
        140.0       140.0       140.0       140.0       140.0       140.0       140.0       140.0       140.0       140.0    
        140.0       140.0       140.0       140.0       140.0       140.0       140.0       140.0       140.0       140.0    
        140.0       140.0       140.0       140.0       140.0       140.0       140.0       140.0       140.0       140.0    
        140.0       140.0       140.0       140.0       140.0       140.0       140.0       140.0       140.0       140.0    
        140.0       140.0       140.0       140.0       140.0       140.0       140.0       140.0       140.0       140.0    
        140.0       140.0       140.0       140.0       140.0       140.0       140.0       140.0       140.0       140.0    
        140.0       140.0       140.0       140.0       140.0       140.0       140.0       140.0       140.0       140.0    
        140.0       140.0       140.0       140.0       140.0       140.0       140.0       140.0       140.0       140.0    
        140.0       140.0       140.0       140.0       140.0       140.0       140.0       140.0       140.0       140.0    
        140.0       140.0       140.0       140.0       140.0       140.0       140.0       140.0       140.0       140.0    
        140.0       140.0       140.0       140.0       140.0       140.0       140.0       140.0       140.0       140.0    
        140.0       140.0       140.0       140.0       140.0       140.0       140.0       140.0       140.0       140.0    
        140.0    
  26    140.0       140.0       140.0       140.0       140.0       140.0       140.0       140.0       140.0       140.0    
        140.0       140.0       140.0       140.0       140.0       140.0       140.0       140.0       140.0       140.0    
        140.0       140.0       140.0       140.0       140.0       140.0       140.0       140.0       140.0       140.0    
        140.0       140.0       140.0       140.0       140.0       140.0       140.0       140.0       140.0       140.0    
        140.0       140.0       140.0       140.0       140.0       140.0       140.0       140.0       140.0       140.0    
        140.0       140.0       140.0       140.0       140.0       140.0       140.0       140.0       140.0       140.0    
        140.0       140.0       140.0       140.0       140.0       140.0       140.0       140.0       140.0       140.0    
        140.0       140.0       140.0       140.0       140.0       140.0       140.0       140.0       140.0       140.0    
        140.0       140.0       140.0       140.0       140.0       140.0       140.0       140.0       140.0       140.0    
        140.0       140.0       140.0       140.0       140.0       140.0       140.0       140.0       140.0       140.0    
        140.0       140.0       140.0       140.0       140.0       140.0       140.0       140.0       140.0       140.0    
        140.0       140.0       140.0       140.0       140.0       140.0       140.0       140.0       140.0       140.0    
        140.0       140.0       140.0       140.0       140.0       140.0       140.0       140.0       140.0       140.0    
        140.0       140.0       140.0       140.0       140.0       140.0       140.0       140.0       140.0       140.0    
        140.0       140.0       140.0       140.0       140.0       140.0       140.0       140.0       140.0       140.0    
        140.0       140.0       140.0       140.0       140.0       140.0       140.0       140.0       140.0       140.0    
        140.0       140.0       140.0       140.0       140.0       140.0       140.0       140.0       140.0       140.0    
        140.0       140.0       140.0       140.0       140.0       140.0       140.0       140.0       140.0       140.0    
        140.0       140.0       140.0       140.0       140.0       140.0       140.0       140.0       140.0       140.0    
        140.0       140.0       140.0       140.0       140.0       140.0       140.0       140.0       140.0       140.0    
        140.0    
  27    140.0       140.0       140.0       140.0       140.0       140.0       140.0       140.0       140.0       140.0    
        140.0       140.0       140.0       140.0       140.0       140.0       140.0       140.0       140.0       140.0    
        140.0       140.0       140.0       140.0       140.0       140.0       140.0       140.0       140.0       140.0    
        140.0       140.0       140.0       140.0       140.0       140.0       140.0       140.0       140.0       140.0    
        140.0       140.0       140.0       140.0       140.0       140.0       140.0       140.0       140.0       140.0    
        140.0       140.0       140.0       140.0       140.0       140.0       140.0       140.0       140.0       140.0    
        140.0       140.0       140.0       140.0       140.0       140.0       140.0       140.0       140.0       140.0    
        140.0       140.0       140.0       140.0       140.0       140.0       140.0       140.0       140.0       140.0    
        140.0       140.0       140.0       140.0       140.0       140.0       140.0       140.0       140.0       140.0    
        140.0       140.0       140.0       140.0       140.0       140.0       140.0       140.0       140.0       140.0    
        140.0       140.0       140.0       140.0       140.0       140.0       140.0       140.0       140.0       140.0    
        140.0       140.0       140.0       140.0       140.0       140.0       140.0       140.0       140.0       140.0    
        140.0       140.0       140.0       140.0       140.0       140.0       140.0       140.0       140.0       140.0    
        140.0       140.0       140.0       140.0       140.0       140.0       140.0       140.0       140.0       140.0    
        140.0       140.0       140.0       140.0       140.0       140.0       140.0       140.0       140.0       140.0    
        140.0       140.0       140.0       140.0       140.0       140.0       140.0       140.0       140.0       140.0    
        140.0       140.0       140.0       140.0       140.0       140.0       140.0       140.0       140.0       140.0    
        140.0       140.0       140.0       140.0       140.0       140.0       140.0       140.0       140.0       140.0    
        140.0       140.0       140.0       140.0       140.0       140.0       140.0       140.0       140.0       140.0    
        140.0       140.0       140.0       140.0       140.0       140.0       140.0       140.0       140.0       140.0    
        140.0    
  28    140.0       140.0       140.0       140.0       140.0       140.0       140.0       140.0       140.0       140.0    
        140.0       140.0       140.0       140.0       140.0       140.0       140.0       140.0       140.0       140.0    
        140.0       140.0       140.0       140.0       140.0       140.0       140.0       140.0       140.0       140.0    
        140.0       140.0       140.0       140.0       140.0       140.0       140.0       140.0       140.0       140.0    
        140.0       140.0       140.0       140.0       140.0       140.0       140.0       140.0       140.0       140.0    
        140.0       140.0       140.0       140.0       140.0       140.0       140.0       140.0       140.0       140.0    
        140.0       140.0       140.0       140.0       140.0       140.0       140.0       140.0       140.0       140.0    
        140.0       140.0       140.0       140.0       140.0       140.0       140.0       140.0       140.0       140.0    
        140.0       140.0       140.0       140.0       140.0       140.0       140.0       140.0       140.0       140.0    
        140.0       140.0       140.0       140.0       140.0       140.0       140.0       140.0       140.0       140.0    
        140.0       140.0       140.0       140.0       140.0       140.0       140.0       140.0       140.0       140.0    
        140.0       140.0       140.0       140.0       140.0       140.0       140.0       140.0       140.0       140.0    
        140.0       140.0       140.0       140.0       140.0       140.0       140.0       140.0       140.0       140.0    
        140.0       140.0       140.0       140.0       140.0       140.0       140.0       140.0       140.0       140.0    
        140.0       140.0       140.0       140.0       140.0       140.0       140.0       140.0       140.0       140.0    
        140.0       140.0       140.0       140.0       140.0       140.0       140.0       140.0       140.0       140.0    
        140.0       140.0       140.0       140.0       140.0       140.0       140.0       140.0       140.0       140.0    
        140.0       140.0       140.0       140.0       140.0       140.0       140.0       140.0       140.0       140.0    
        140.0       140.0       140.0       140.0       140.0       140.0       140.0       140.0       140.0       140.0    
        140.0       140.0       140.0       140.0       140.0       140.0       140.0       140.0       140.0       140.0    
        140.0    
  29    140.0       140.0       140.0       140.0       140.0       140.0       140.0       140.0       140.0       140.0    
        140.0       140.0       140.0       140.0       140.0       140.0       140.0       140.0       140.0       140.0    
        140.0       140.0       140.0       140.0       140.0       140.0       140.0       140.0       140.0       140.0    
        140.0       140.0       140.0       140.0       140.0       140.0       140.0       140.0       140.0       140.0    
        140.0       140.0       140.0       140.0       140.0       140.0       140.0       140.0       140.0       140.0    
        140.0       140.0       140.0       140.0       140.0       140.0       140.0       140.0       140.0       140.0    
        140.0       140.0       140.0       140.0       140.0       140.0       140.0       140.0       140.0       140.0    
        140.0       140.0       140.0       140.0       140.0       140.0       140.0       140.0       140.0       140.0    
        140.0       140.0       140.0       140.0       140.0       140.0       140.0       140.0       140.0       140.0    
        140.0       140.0       140.0       140.0       140.0       140.0       140.0       140.0       140.0       140.0    
        140.0       140.0       140.0       140.0       140.0       140.0       140.0       140.0       140.0       140.0    
[...]
        140.0       140.0       140.0       140.0       140.0       140.0       140.0       140.0       140.0       140.0    
        140.0       140.0       140.0       140.0       140.0       140.0       140.0       140.0       140.0       140.0    
        140.0    
 195    140.0       140.0       140.0       140.0       140.0       140.0       140.0       140.0       140.0       140.0    
        140.0       140.0       140.0       140.0       140.0       140.0       140.0       140.0       140.0       140.0    
        140.0       140.0       140.0       140.0       140.0       140.0       140.0       140.0       140.0       140.0    
        140.0       140.0       140.0       140.0       140.0       140.0       140.0       140.0       140.0       140.0    
        140.0       140.0       140.0       140.0       140.0       140.0       140.0       140.0       140.0       140.0    
        140.0       140.0       140.0       140.0       140.0       140.0       140.0       140.0       140.0       140.0    
        140.0       140.0       140.0       140.0       140.0       140.0       140.0       140.0       140.0       140.0    
        140.0       140.0       140.0       140.0       140.0       140.0       140.0       140.0       140.0       140.0    
        140.0       140.0       140.0       140.0       140.0       140.0       140.0       140.0       140.0       140.0    
        140.0       140.0       140.0       140.0       140.0       140.0       140.0       140.0       140.0       140.0    
        140.0       140.0       140.0       140.0       140.0       140.0       140.0       140.0       140.0       140.0    
        140.0       140.0       140.0       140.0       140.0       140.0       140.0       140.0       140.0       140.0    
        140.0       140.0       140.0       140.0       140.0       140.0       140.0       140.0       140.0       140.0    
        140.0       140.0       140.0       140.0       140.0       140.0       140.0       140.0       140.0       140.0    
        140.0       140.0       140.0       140.0       140.0       140.0       140.0       140.0       140.0       140.0    
        140.0       140.0       140.0       140.0       140.0       140.0       140.0       140.0       140.0       140.0    
        140.0       140.0       140.0       140.0       140.0       140.0       140.0       140.0       140.0       140.0    
        140.0       140.0       140.0       140.0       140.0       140.0       140.0       140.0       140.0       140.0    
        140.0       140.0       140.0       140.0       140.0       140.0       140.0       140.0       140.0       140.0    
        140.0       140.0       140.0       140.0       140.0       140.0       140.0       140.0       140.0       140.0    
        140.0    
 196    140.0       140.0       140.0       140.0       140.0       140.0       140.0       140.0       140.0       140.0    
        140.0       140.0       140.0       140.0       140.0       140.0       140.0       140.0       140.0       140.0    
        140.0       140.0       140.0       140.0       140.0       140.0       140.0       140.0       140.0       140.0    
        140.0       140.0       140.0       140.0       140.0       140.0       140.0       140.0       140.0       140.0    
        140.0       140.0       140.0       140.0       140.0       140.0       140.0       140.0       140.0       140.0    
        140.0       140.0       140.0       140.0       140.0       140.0       140.0       140.0       140.0       140.0    
        140.0       140.0       140.0       140.0       140.0       140.0       140.0       140.0       140.0       140.0    
        140.0       140.0       140.0       140.0       140.0       140.0       140.0       140.0       140.0       140.0    
        140.0       140.0       140.0       140.0       140.0       140.0       140.0       140.0       140.0       140.0    
        140.0       140.0       140.0       140.0       140.0       140.0       140.0       140.0       140.0       140.0    
        140.0       140.0       140.0       140.0       140.0       140.0       140.0       140.0       140.0       140.0    
        140.0       140.0       140.0       140.0       140.0       140.0       140.0       140.0       140.0       140.0    
        140.0       140.0       140.0       140.0       140.0       140.0       140.0       140.0       140.0       140.0    
        140.0       140.0       140.0       140.0       140.0       140.0       140.0       140.0       140.0       140.0    
        140.0       140.0       140.0       140.0       140.0       140.0       140.0       140.0       140.0       140.0    
        140.0       140.0       140.0       140.0       140.0       140.0       140.0       140.0       140.0       140.0    
        140.0       140.0       140.0       140.0       140.0       140.0       140.0       140.0       140.0       140.0    
        140.0       140.0       140.0       140.0       140.0       140.0       140.0       140.0       140.0       140.0    
        140.0       140.0       140.0       140.0       140.0       140.0       140.0       140.0       140.0       140.0    
        140.0       140.0       140.0       140.0       140.0       140.0       140.0       140.0       140.0       140.0    
        140.0    
 197    140.0       140.0       140.0       140.0       140.0       140.0       140.0       140.0       140.0       140.0    
        140.0       140.0       140.0       140.0       140.0       140.0       140.0       140.0       140.0       140.0    
        140.0       140.0       140.0       140.0       140.0       140.0       140.0       140.0       140.0       140.0    
        140.0       140.0       140.0       140.0       140.0       140.0       140.0       140.0       140.0       140.0    
        140.0       140.0       140.0       140.0       140.0       140.0       140.0       140.0       140.0       140.0    
        140.0       140.0       140.0       140.0       140.0       140.0       140.0       140.0       140.0       140.0    
        140.0       140.0       140.0       140.0       140.0       140.0       140.0       140.0       140.0       140.0    
        140.0       140.0       140.0       140.0       140.0       140.0       140.0       140.0       140.0       140.0    
        140.0       140.0       140.0       140.0       140.0       140.0       140.0       140.0       140.0       140.0    
        140.0       140.0       140.0       140.0       140.0       140.0       140.0       140.0       140.0       140.0    
        140.0       140.0       140.0       140.0       140.0       140.0       140.0       140.0       140.0       140.0    
        140.0       140.0       140.0       140.0       140.0       140.0       140.0       140.0       140.0       140.0    
        140.0       140.0       140.0       140.0       140.0       140.0       140.0       140.0       140.0       140.0    
        140.0       140.0       140.0       140.0       140.0       140.0       140.0       140.0       140.0       140.0    
        140.0       140.0       140.0       140.0       140.0       140.0       140.0       140.0       140.0       140.0    
        140.0       140.0       140.0       140.0       140.0       140.0       140.0       140.0       140.0       140.0    
        140.0       140.0       140.0       140.0       140.0       140.0       140.0       140.0       140.0       140.0    
        140.0       140.0       140.0       140.0       140.0       140.0       140.0       140.0       140.0       140.0    
        140.0       140.0       140.0       140.0       140.0       140.0       140.0       140.0       140.0       140.0    
        140.0       140.0       140.0       140.0       140.0       140.0       140.0       140.0       140.0       140.0    
        140.0    
 198    140.0       140.0       140.0       140.0       140.0       140.0       140.0       140.0       140.0       140.0    
        140.0       140.0       140.0       140.0       140.0       140.0       140.0       140.0       140.0       140.0    
        140.0       140.0       140.0       140.0       140.0       140.0       140.0       140.0       140.0       140.0    
        140.0       140.0       140.0       140.0       140.0       140.0       140.0       140.0       140.0       140.0    
        140.0       140.0       140.0       140.0       140.0       140.0       140.0       140.0       140.0       140.0    
        140.0       140.0       140.0       140.0       140.0       140.0       140.0       140.0       140.0       140.0    
        140.0       140.0       140.0       140.0       140.0       140.0       140.0       140.0       140.0       140.0    
        140.0       140.0       140.0       140.0       140.0       140.0       140.0       140.0       140.0       140.0    
        140.0       140.0       140.0       140.0       140.0       140.0       140.0       140.0       140.0       140.0    
        140.0       140.0       140.0       140.0       140.0       140.0       140.0       140.0       140.0       140.0    
        140.0       140.0       140.0       140.0       140.0       140.0       140.0       140.0       140.0       140.0    
        140.0       140.0       140.0       140.0       140.0       140.0       140.0       140.0       140.0       140.0    
        140.0       140.0       140.0       140.0       140.0       140.0       140.0       140.0       140.0       140.0    
        140.0       140.0       140.0       140.0       140.0       140.0       140.0       140.0       140.0       140.0    
        140.0       140.0       140.0       140.0       140.0       140.0       140.0       140.0       140.0       140.0    
        140.0       140.0       140.0       140.0       140.0       140.0       140.0       140.0       140.0       140.0    
        140.0       140.0       140.0       140.0       140.0       140.0       140.0       140.0       140.0       140.0    
        140.0       140.0       140.0       140.0       140.0       140.0       140.0       140.0       140.0       140.0    
        140.0       140.0       140.0       140.0       140.0       140.0       140.0       140.0       140.0       140.0    
        140.0       140.0       140.0       140.0       140.0       140.0       140.0       140.0       140.0       140.0    
        140.0    
 199    140.0       140.0       140.0       140.0       140.0       140.0       140.0       140.0       140.0       140.0    
        140.0       140.0       140.0       140.0       140.0       140.0       140.0       140.0       140.0       140.0    
        140.0       140.0       140.0       140.0       140.0       140.0       140.0       140.0       140.0       140.0    
        140.0       140.0       140.0       140.0       140.0       140.0       140.0       140.0       140.0       140.0    
        140.0       140.0       140.0       140.0       140.0       140.0       140.0       140.0       140.0       140.0    
        140.0       140.0       140.0       140.0       140.0       140.0       140.0       140.0       140.0       140.0    
        140.0       140.0       140.0       140.0       140.0       140.0       140.0       140.0       140.0       140.0    
        140.0       140.0       140.0       140.0       140.0       140.0       140.0       140.0       140.0       140.0    
        140.0       140.0       140.0       140.0       140.0       140.0       140.0       140.0       140.0       140.0    
        140.0       140.0       140.0       140.0       140.0       140.0       140.0       140.0       140.0       140.0    
        140.0       140.0       140.0       140.0       140.0       140.0       140.0       140.0       140.0       140.0    
        140.0       140.0       140.0       140.0       140.0       140.0       140.0       140.0       140.0       140.0    
        140.0       140.0       140.0       140.0       140.0       140.0       140.0       140.0       140.0       140.0    
        140.0       140.0       140.0       140.0       140.0       140.0       140.0       140.0       140.0       140.0    
        140.0       140.0       140.0       140.0       140.0       140.0       140.0       140.0       140.0       140.0    
        140.0       140.0       140.0       140.0       140.0       140.0       140.0       140.0       140.0       140.0    
        140.0       140.0       140.0       140.0       140.0       140.0       140.0       140.0       140.0       140.0    
        140.0       140.0       140.0       140.0       140.0       140.0       140.0       140.0       140.0       140.0    
        140.0       140.0       140.0       140.0       140.0       140.0       140.0       140.0       140.0       140.0    
        140.0       140.0       140.0       140.0       140.0       140.0       140.0       140.0       140.0       140.0    
        140.0    
 200    140.0       140.0       140.0       140.0       140.0       140.0       140.0       140.0       140.0       140.0    
        140.0       140.0       140.0       140.0       140.0       140.0       140.0       140.0       140.0       140.0    
        140.0       140.0       140.0       140.0       140.0       140.0       140.0       140.0       140.0       140.0    
        140.0       140.0       140.0       140.0       140.0       140.0       140.0       140.0       140.0       140.0    
        140.0       140.0       140.0       140.0       140.0       140.0       140.0       140.0       140.0       140.0    
        140.0       140.0       140.0       140.0       140.0       140.0       140.0       140.0       140.0       140.0    
        140.0       140.0       140.0       140.0       140.0       140.0       140.0       140.0       140.0       140.0    
        140.0       140.0       140.0       140.0       140.0       140.0       140.0       140.0       140.0       140.0    
        140.0       140.0       140.0       140.0       140.0       140.0       140.0       140.0       140.0       140.0    
        140.0       140.0       140.0       140.0       140.0       140.0       140.0       140.0       140.0       140.0    
        140.0       140.0       140.0       140.0       140.0       140.0       140.0       140.0       140.0       140.0    
        140.0       140.0       140.0       140.0       140.0       140.0       140.0       140.0       140.0       140.0    
        140.0       140.0       140.0       140.0       140.0       140.0       140.0       140.0       140.0       140.0    
        140.0       140.0       140.0       140.0       140.0       140.0       140.0       140.0       140.0       140.0    
        140.0       140.0       140.0       140.0       140.0       140.0       140.0       140.0       140.0       140.0    
        140.0       140.0       140.0       140.0       140.0       140.0       140.0       140.0       140.0       140.0    
        140.0       140.0       140.0       140.0       140.0       140.0       140.0       140.0       140.0       140.0    
        140.0       140.0       140.0       140.0       140.0       140.0       140.0       140.0       140.0       140.0    
        140.0       140.0       140.0       140.0       140.0       140.0       140.0       140.0       140.0       140.0    
        140.0       140.0       140.0       140.0       140.0       140.0       140.0       140.0       140.0       140.0    
        140.0    
 201    140.0       140.0       140.0       140.0       140.0       140.0       140.0       140.0       140.0       140.0    
        140.0       140.0       140.0       140.0       140.0       140.0       140.0       140.0       140.0       140.0    
        140.0       140.0       140.0       140.0       140.0       140.0       140.0       140.0       140.0       140.0    
        140.0       140.0       140.0       140.0       140.0       140.0       140.0       140.0       140.0       140.0    
        140.0       140.0       140.0       140.0       140.0       140.0       140.0       140.0       140.0       140.0    
        140.0       140.0       140.0       140.0       140.0       140.0       140.0       140.0       140.0       140.0    
        140.0       140.0       140.0       140.0       140.0       140.0       140.0       140.0       140.0       140.0    
        140.0       140.0       140.0       140.0       140.0       140.0       140.0       140.0       140.0       140.0    
        140.0       140.0       140.0       140.0       140.0       140.0       140.0       140.0       140.0       140.0    
        140.0       140.0       140.0       140.0       140.0       140.0       140.0       140.0       140.0       140.0    
        140.0       140.0       140.0       140.0       140.0       140.0       140.0       140.0       140.0       140.0    
        140.0       140.0       140.0       140.0       140.0       140.0       140.0       140.0       140.0       140.0    
        140.0       140.0       140.0       140.0       140.0       140.0       140.0       140.0       140.0       140.0    
        140.0       140.0       140.0       140.0       140.0       140.0       140.0       140.0       140.0       140.0    
        140.0       140.0       140.0       140.0       140.0       140.0       140.0       140.0       140.0       140.0    
        140.0       140.0       140.0       140.0       140.0       140.0       140.0       140.0       140.0       140.0    
        140.0       140.0       140.0       140.0       140.0       140.0       140.0       140.0       140.0       140.0    
        140.0       140.0       140.0       140.0       140.0       140.0       140.0       140.0       140.0       140.0    
        140.0       140.0       140.0       140.0       140.0       140.0       140.0       140.0       140.0       140.0    
        140.0       140.0       140.0       140.0       140.0       140.0       140.0       140.0       140.0       140.0    
        140.0    


  VOLUME BUDGET FOR ENTIRE MODEL AT END OF TIME STEP   20, STRESS PERIOD   2
  ---------------------------------------------------------------------------------------------------

     CUMULATIVE VOLUME      L**3       RATES FOR THIS TIME STEP      L**3/T          PACKAGE NAME    
     ------------------                 ------------------------                     ----------------

           IN:                                      IN:
           ---                                      ---
              STO-SS =      265855.4627                STO-SS =         379.1738     STORAGE                          
                 WEL =           0.0000                   WEL =           0.0000     WEL_0                            
                 CHD =     2174059.8928                   CHD =        6305.5598     CHD_0                            

            TOTAL IN =     2439915.3555              TOTAL IN =        6684.7336

          OUT:                                     OUT:
          ----                                     ----
              STO-SS =           0.0000                STO-SS =           0.0000     STORAGE                          
                 WEL =     2439915.5000                   WEL =        6684.7000     WEL_0                            
                 CHD =           0.0000                   CHD =           0.0000     CHD_0                            

           TOTAL OUT =     2439915.5000             TOTAL OUT =        6684.7000

            IN - OUT =          -0.1445              IN - OUT =       3.3596E-02

 PERCENT DISCREPANCY =          -0.00     PERCENT DISCREPANCY =           0.00




         TIME SUMMARY AT END OF TIME STEP   20 IN STRESS PERIOD    2
                          TIME STEP LENGTH =    18.2500    
                        STRESS PERIOD TIME =    365.000    
                     TOTAL SIMULATION TIME =    365.000    

end timestep

